
This summary file was generated by TurbSim (from OpenFAST-v3.5.1-607-g88e18ed3) on 14-Dec-2024 at 20:01:29.


Runtime Options:

    106444  Random seed #1
    RANLUX  Type of random number generator
         F  Output binary HH turbulence parameters?
         F  Output formatted turbulence parameters?
         F  Output AeroDyn HH files?
         T  Output AeroDyn FF files?
         F  Output BLADED FF files?
         F  Output tower data?
         F  Output HAWC FF files?
         F  Output formatted FF files?
         T  Output coherent turbulence time step file?
 0 -  NONE  IEC turbulence models scaled to exact specified standard deviation


Turbine/Model Specifications:

        15  Vertical grid-point matrix dimension
        15  Horizontal grid-point matrix dimension
     0.100  Time step [seconds]
    60.000  Analysis time [seconds]
    60.000  Usable output time [seconds]
   150.000  Hub height [m]
   289.500  Grid height [m]
   350.000  Grid width [m]
     0.000  Vertical flow angle [degrees]
     0.000  Horizontal flow angle [degrees]


Meteorological Boundary Conditions:

    IECKAI  IEC Kaimal spectral model
         3  IEC standard: IEC 61400-3 Ed. 1: 2006
    11.000  Percent turbulence intensity, IEC 61400-3 Ed. 1: 2006
       NTM  IEC Normal Turbulence Model
       N/A  IEC Extreme Turbulence Model (ETM) "c" parameter [m/s]
       PL   Wind profile type
   150.000  Reference height [m]
    41.000  Reference wind speed [m/s]
       N/A  Jet height [m]
     0.120  Power law exponent
     0.030  Surface roughness length [m]


Non-IEC Meteorological Boundary Conditions:

       N/A  Site latitude [degrees]
       N/A  Gradient Richardson number
       N/A  Friction or shear velocity [m/s]
       N/A  Mixing layer depth [m]
       N/A  Mean hub u'w' Reynolds stress
       N/A  Mean hub u'v' Reynolds stress
       N/A  Mean hub v'w' Reynolds stress


Spatial Coherence Models:

       IEC  u-component coherence model
      NONE  v-component coherence model
      NONE  w-component coherence model
(   12.000, 0.353E-03)  u-component coherence parameters
                   N/A  v-component coherence parameters
                   N/A  w-component coherence parameters
       N/A  Coherence exponent


You have requested that the following file(s) be generated:

   Turbsim_Vhub_41_seednum_106444.Turbsim.bts (AeroDyn/TurbSim full-field wind file)


Turbulence Simulation Scaling Parameter Summary:

   Turbulence model used                            =  IEC Kaimal
   Turbulence characteristic                        =  User-specified
   IEC standard                                     =  IEC 61400-3 Ed. 1: 2006
   Mean wind speed at hub height                    =   41.000 m/s
   Characteristic value of standard deviation       =    4.510 m/s
   Turbulence scale                                 =   42.000 m
   u-component integral scale                       =  340.200 m
   Coherency scale                                  =  340.200 m
   Characteristic value of hub turbulence intensity =   11.000%
   Gradient Richardson number                       =    0.000

   Wind profile type                                =  Power law
   Power law exponent                               =    0.120
   Mean shear across rotor disk                     =    0.059 (m/s)/m
   Assumed rotor diameter                           =  289.500 m
   Surface roughness length                         =    0.030 m

   Nyquist frequency of turbulent wind field        =    5.000 Hz

   Number of time steps in the FFT                  =      600
   Number of time steps output                      =      600
   Number of points simulated                       =      225


Mean Flow Angles:

   Vertical   =   0.0 degrees
   Horizontal =   0.0 degrees

Mean Wind Speed Profile:

   Height    Wind Speed   Horizontal Angle  Vertical Angle  U-comp (X)   V-comp (Y)   W-comp (Z)
     (m)        (m/s)         (degrees)       (degrees)       (m/s)        (m/s)        (m/s)   
   ------    ----------   ----------------  --------------  ----------   ----------   ----------
    294.8       44.46            0.00            0.00         44.46         0.00         0.00
    274.1       44.08            0.00            0.00         44.08         0.00         0.00
    253.4       43.66            0.00            0.00         43.66         0.00         0.00
    232.7       43.22            0.00            0.00         43.22         0.00         0.00
    212.0       42.74            0.00            0.00         42.74         0.00         0.00
    191.4       42.22            0.00            0.00         42.22         0.00         0.00
    170.7       41.64            0.00            0.00         41.64         0.00         0.00
    150.0       41.00            0.00            0.00         41.00         0.00         0.00
    129.3       40.28            0.00            0.00         40.28         0.00         0.00
    108.6       39.44            0.00            0.00         39.44         0.00         0.00
     88.0       38.46            0.00            0.00         38.46         0.00         0.00
     67.3       37.24            0.00            0.00         37.24         0.00         0.00
     46.6       35.63            0.00            0.00         35.63         0.00         0.00
     25.9       33.21            0.00            0.00         33.21         0.00         0.00
      5.2       27.42            0.00            0.00         27.42         0.00         0.00


Harvested Random Seeds after Generation of the Random Numbers:

      1881463 K 1
            0 K 2


Hub-Height Simulated Turbulence Statistical Summary:

   Type of Wind        Min (m/s)   Mean (m/s)    Max (m/s)  Sigma (m/s)       TI (%)
   ----------------    ---------   ----------    ---------  -----------       ------
   Longitudinal (u)        31.67        41.00        52.92        4.089        9.973
   Lateral (v)             -8.40        -0.00        11.77        3.351        8.173
   Vertical (w)            -5.93         0.00         5.84        2.076        5.063
   U component             31.67        41.00        52.92        4.089        9.973
   V component             -8.40        -0.00        11.77        3.351        8.173
   W component             -5.93         0.00         5.84        2.076        5.063
   Horizontal (U&V)        31.67        41.13        52.93        4.112        9.996
   Total                   31.71        41.19        52.93        4.113        9.987

                       Min Reynolds     Mean Reynolds    Max Reynolds    Correlation
   Product             Stress (m/s)^2   Stress (m/s)^2   Stress (m/s)^2  Coefficient
   ----------------    --------------   --------------   --------------  -----------
   u'w'                    -32.507             0.563            35.971         0.066
   u'v'                    -38.032             1.210            94.437         0.088
   v'w'                    -42.587             0.043            34.554         0.006


   Friction Velocity (Ustar)  =      0.750 m/s
   Maximum Instantaneous TKE  =    105.743 (m/s)^2
   Maximum Instantaneous CTKE =     52.182 (m/s)^2


Grid Point Variance Summary:

   Y-coord -175.00 -150.00 -125.00 -100.00  -75.00  -50.00  -25.00    0.00   25.00   50.00   75.00  100.00  125.00  150.00  175.00

   Height   Standard deviation at grid points for the u component:
   294.75    4.004   4.336   3.757   4.743   4.621   4.797   5.080   4.990   4.910   4.234   3.834   3.240   3.983   3.821   3.419
   274.07    4.640   4.355   4.475   4.989   4.702   4.783   5.032   4.709   4.551   4.389   4.073   3.605   4.323   4.375   3.748
   253.39    4.089   4.150   4.511   4.912   4.027   3.872   4.580   5.206   4.710   4.542   3.682   3.855   3.543   3.675   3.702
   232.71    3.689   3.625   4.277   4.125   4.491   4.420   4.365   4.477   4.074   3.720   3.595   3.767   3.505   3.104   3.693
   212.04    2.921   3.942   4.085   4.965   4.960   4.558   4.141   4.158   3.698   3.253   3.904   3.564   3.721   3.181   3.426
   191.36    3.167   4.415   3.814   4.581   4.736   4.320   4.592   3.321   3.360   3.921   4.353   3.517   3.011   2.839   3.270
   170.68    4.076   3.978   4.127   3.965   4.009   4.332   4.474   3.384   3.403   3.964   3.839   3.840   3.671   3.505   3.381
   150.00    3.874   4.317   4.110   4.199   3.552   4.012   4.445   4.089   3.633   4.304   4.078   3.478   4.437   3.249   3.649
   129.32    3.446   3.425   4.077   4.125   3.676   4.281   3.740   3.784   3.844   3.912   3.645   4.132   4.538   3.390   3.740
   108.64    3.393   3.157   3.424   3.759   3.662   3.861   3.441   3.283   2.831   3.176   3.577   3.522   4.122   3.767   3.747
    87.96    3.480   3.779   2.954   3.715   4.083   4.044   3.677   3.583   3.616   2.814   3.290   3.514   3.843   4.109   3.458
    67.29    3.501   3.197   3.504   3.378   3.151   3.300   3.549   3.753   4.720   3.681   3.957   4.211   3.650   3.571   3.729
    46.61    4.770   3.816   3.264   3.385   3.651   3.424   3.237   3.453   4.727   4.511   3.682   3.909   3.045   3.573   3.404
    25.93    3.681   4.207   3.450   3.703   3.576   3.240   3.539   3.840   4.806   4.723   4.042   3.282   3.116   3.567   3.414
     5.25    3.923   3.757   3.594   3.386   3.309   3.298   3.668   4.106   4.494   4.327   4.165   2.908   3.501   3.364   3.810

   Height   Standard deviation at grid points for the v component:
   294.75    3.351   3.351   3.351   3.351   3.351   3.351   3.351   3.351   3.351   3.351   3.351   3.351   3.351   3.351   3.351
   274.07    3.351   3.351   3.351   3.351   3.351   3.351   3.351   3.351   3.351   3.351   3.351   3.351   3.351   3.351   3.351
   253.39    3.351   3.351   3.351   3.351   3.351   3.351   3.351   3.351   3.351   3.351   3.351   3.351   3.351   3.351   3.351
   232.71    3.351   3.351   3.351   3.351   3.351   3.351   3.351   3.351   3.351   3.351   3.351   3.351   3.351   3.351   3.351
   212.04    3.351   3.351   3.351   3.351   3.351   3.351   3.351   3.351   3.351   3.351   3.351   3.351   3.351   3.351   3.351
   191.36    3.351   3.351   3.351   3.351   3.351   3.351   3.351   3.351   3.351   3.351   3.351   3.351   3.351   3.351   3.351
   170.68    3.351   3.351   3.351   3.351   3.351   3.351   3.351   3.351   3.351   3.351   3.351   3.351   3.351   3.351   3.351
   150.00    3.351   3.351   3.351   3.351   3.351   3.351   3.351   3.351   3.351   3.351   3.351   3.351   3.351   3.351   3.351
   129.32    3.351   3.351   3.351   3.351   3.351   3.351   3.351   3.351   3.351   3.351   3.351   3.351   3.351   3.351   3.351
   108.64    3.351   3.351   3.351   3.351   3.351   3.351   3.351   3.351   3.351   3.351   3.351   3.351   3.351   3.351   3.351
    87.96    3.351   3.351   3.351   3.351   3.351   3.351   3.351   3.351   3.351   3.351   3.351   3.351   3.351   3.351   3.351
    67.29    3.351   3.351   3.351   3.351   3.351   3.351   3.351   3.351   3.351   3.351   3.351   3.351   3.351   3.351   3.351
    46.61    3.351   3.351   3.351   3.351   3.351   3.351   3.351   3.351   3.351   3.351   3.351   3.351   3.351   3.351   3.351
    25.93    3.351   3.351   3.351   3.351   3.351   3.351   3.351   3.351   3.351   3.351   3.351   3.351   3.351   3.351   3.351
     5.25    3.351   3.351   3.351   3.351   3.351   3.351   3.351   3.351   3.351   3.351   3.351   3.351   3.351   3.351   3.351

   Height   Standard deviation at grid points for the w component:
   294.75    2.076   2.076   2.076   2.076   2.076   2.076   2.076   2.076   2.076   2.076   2.076   2.076   2.076   2.076   2.076
   274.07    2.076   2.076   2.076   2.076   2.076   2.076   2.076   2.076   2.076   2.076   2.076   2.076   2.076   2.076   2.076
   253.39    2.076   2.076   2.076   2.076   2.076   2.076   2.076   2.076   2.076   2.076   2.076   2.076   2.076   2.076   2.076
   232.71    2.076   2.076   2.076   2.076   2.076   2.076   2.076   2.076   2.076   2.076   2.076   2.076   2.076   2.076   2.076
   212.04    2.076   2.076   2.076   2.076   2.076   2.076   2.076   2.076   2.076   2.076   2.076   2.076   2.076   2.076   2.076
   191.36    2.076   2.076   2.076   2.076   2.076   2.076   2.076   2.076   2.076   2.076   2.076   2.076   2.076   2.076   2.076
   170.68    2.076   2.076   2.076   2.076   2.076   2.076   2.076   2.076   2.076   2.076   2.076   2.076   2.076   2.076   2.076
   150.00    2.076   2.076   2.076   2.076   2.076   2.076   2.076   2.076   2.076   2.076   2.076   2.076   2.076   2.076   2.076
   129.32    2.076   2.076   2.076   2.076   2.076   2.076   2.076   2.076   2.076   2.076   2.076   2.076   2.076   2.076   2.076
   108.64    2.076   2.076   2.076   2.076   2.076   2.076   2.076   2.076   2.076   2.076   2.076   2.076   2.076   2.076   2.076
    87.96    2.076   2.076   2.076   2.076   2.076   2.076   2.076   2.076   2.076   2.076   2.076   2.076   2.076   2.076   2.076
    67.29    2.076   2.076   2.076   2.076   2.076   2.076   2.076   2.076   2.076   2.076   2.076   2.076   2.076   2.076   2.076
    46.61    2.076   2.076   2.076   2.076   2.076   2.076   2.076   2.076   2.076   2.076   2.076   2.076   2.076   2.076   2.076
    25.93    2.076   2.076   2.076   2.076   2.076   2.076   2.076   2.076   2.076   2.076   2.076   2.076   2.076   2.076   2.076
     5.25    2.076   2.076   2.076   2.076   2.076   2.076   2.076   2.076   2.076   2.076   2.076   2.076   2.076   2.076   2.076

   Mean standard deviation across all grid points:
      u component:    3.878 m/s
      v component:    3.351 m/s
      w component:    2.076 m/s


U-component (X) statistics from the interpolated hub point:

   Mean =  41.0000 m/s
   TI   =   9.9730 %


Processing complete.  34.201 CPU seconds used.
