
This summary file was generated by TurbSim (from OpenFAST-v3.5.1-607-g88e18ed3) on 14-Dec-2024 at 20:02:20.


Runtime Options:

    747715  Random seed #1
    RANLUX  Type of random number generator
         F  Output binary HH turbulence parameters?
         F  Output formatted turbulence parameters?
         F  Output AeroDyn HH files?
         T  Output AeroDyn FF files?
         F  Output BLADED FF files?
         F  Output tower data?
         F  Output HAWC FF files?
         F  Output formatted FF files?
         T  Output coherent turbulence time step file?
 0 -  NONE  IEC turbulence models scaled to exact specified standard deviation


Turbine/Model Specifications:

        15  Vertical grid-point matrix dimension
        15  Horizontal grid-point matrix dimension
     0.100  Time step [seconds]
    60.000  Analysis time [seconds]
    60.000  Usable output time [seconds]
   150.000  Hub height [m]
   289.500  Grid height [m]
   350.000  Grid width [m]
     0.000  Vertical flow angle [degrees]
     0.000  Horizontal flow angle [degrees]


Meteorological Boundary Conditions:

    IECKAI  IEC Kaimal spectral model
         3  IEC standard: IEC 61400-3 Ed. 1: 2006
    11.000  Percent turbulence intensity, IEC 61400-3 Ed. 1: 2006
       NTM  IEC Normal Turbulence Model
       N/A  IEC Extreme Turbulence Model (ETM) "c" parameter [m/s]
       PL   Wind profile type
   150.000  Reference height [m]
    73.000  Reference wind speed [m/s]
       N/A  Jet height [m]
     0.120  Power law exponent
     0.030  Surface roughness length [m]


Non-IEC Meteorological Boundary Conditions:

       N/A  Site latitude [degrees]
       N/A  Gradient Richardson number
       N/A  Friction or shear velocity [m/s]
       N/A  Mixing layer depth [m]
       N/A  Mean hub u'w' Reynolds stress
       N/A  Mean hub u'v' Reynolds stress
       N/A  Mean hub v'w' Reynolds stress


Spatial Coherence Models:

       IEC  u-component coherence model
      NONE  v-component coherence model
      NONE  w-component coherence model
(   12.000, 0.353E-03)  u-component coherence parameters
                   N/A  v-component coherence parameters
                   N/A  w-component coherence parameters
       N/A  Coherence exponent


You have requested that the following file(s) be generated:

   Turbsim_Vhub_73_seednum_747715.Turbsim.bts (AeroDyn/TurbSim full-field wind file)


Turbulence Simulation Scaling Parameter Summary:

   Turbulence model used                            =  IEC Kaimal
   Turbulence characteristic                        =  User-specified
   IEC standard                                     =  IEC 61400-3 Ed. 1: 2006
   Mean wind speed at hub height                    =   73.000 m/s
   Characteristic value of standard deviation       =    8.030 m/s
   Turbulence scale                                 =   42.000 m
   u-component integral scale                       =  340.200 m
   Coherency scale                                  =  340.200 m
   Characteristic value of hub turbulence intensity =   11.000%
   Gradient Richardson number                       =    0.000

   Wind profile type                                =  Power law
   Power law exponent                               =    0.120
   Mean shear across rotor disk                     =    0.105 (m/s)/m
   Assumed rotor diameter                           =  289.500 m
   Surface roughness length                         =    0.030 m

   Nyquist frequency of turbulent wind field        =    5.000 Hz

   Number of time steps in the FFT                  =      600
   Number of time steps output                      =      600
   Number of points simulated                       =      225


Mean Flow Angles:

   Vertical   =   0.0 degrees
   Horizontal =   0.0 degrees

Mean Wind Speed Profile:

   Height    Wind Speed   Horizontal Angle  Vertical Angle  U-comp (X)   V-comp (Y)   W-comp (Z)
     (m)        (m/s)         (degrees)       (degrees)       (m/s)        (m/s)        (m/s)   
   ------    ----------   ----------------  --------------  ----------   ----------   ----------
    294.8       79.16            0.00            0.00         79.16         0.00         0.00
    274.1       78.48            0.00            0.00         78.48         0.00         0.00
    253.4       77.74            0.00            0.00         77.74         0.00         0.00
    232.7       76.95            0.00            0.00         76.95         0.00         0.00
    212.0       76.10            0.00            0.00         76.10         0.00         0.00
    191.4       75.16            0.00            0.00         75.16         0.00         0.00
    170.7       74.14            0.00            0.00         74.14         0.00         0.00
    150.0       73.00            0.00            0.00         73.00         0.00         0.00
    129.3       71.71            0.00            0.00         71.71         0.00         0.00
    108.6       70.23            0.00            0.00         70.23         0.00         0.00
     88.0       68.47            0.00            0.00         68.47         0.00         0.00
     67.3       66.30            0.00            0.00         66.30         0.00         0.00
     46.6       63.45            0.00            0.00         63.45         0.00         0.00
     25.9       59.14            0.00            0.00         59.14         0.00         0.00
      5.2       48.82            0.00            0.00         48.82         0.00         0.00


Harvested Random Seeds after Generation of the Random Numbers:

      1881463 K 1
            0 K 2


Hub-Height Simulated Turbulence Statistical Summary:

   Type of Wind        Min (m/s)   Mean (m/s)    Max (m/s)  Sigma (m/s)       TI (%)
   ----------------    ---------   ----------    ---------  -----------       ------
   Longitudinal (u)        55.40        73.00        93.96        8.035       11.007
   Lateral (v)            -17.84        -0.00        16.60        6.006        8.228
   Vertical (w)           -10.80        -0.00        10.23        3.592        4.921
   U component             55.40        73.00        93.96        8.035       11.007
   V component            -17.84        -0.00        16.60        6.006        8.228
   W component            -10.80        -0.00        10.23        3.592        4.921
   Horizontal (U&V)        55.43        73.25        94.08        8.021       10.950
   Total                   55.44        73.34        94.10        8.005       10.916

                       Min Reynolds     Mean Reynolds    Max Reynolds    Correlation
   Product             Stress (m/s)^2   Stress (m/s)^2   Stress (m/s)^2  Coefficient
   ----------------    --------------   --------------   --------------  -----------
   u'w'                   -156.773             1.538           110.672         0.053
   u'v'                   -188.570            -6.181           138.606        -0.128
   v'w'                   -122.362             0.755            81.311         0.035


   Friction Velocity (Ustar)  =      1.240 m/s
   Maximum Instantaneous TKE  =    247.880 (m/s)^2
   Maximum Instantaneous CTKE =     95.716 (m/s)^2


Grid Point Variance Summary:

   Y-coord -175.00 -150.00 -125.00 -100.00  -75.00  -50.00  -25.00    0.00   25.00   50.00   75.00  100.00  125.00  150.00  175.00

   Height   Standard deviation at grid points for the u component:
   294.75    6.710   6.409   5.422   6.218   6.473   6.454   6.303   6.149   7.345   7.476   7.418   6.821   7.327   6.067   5.919
   274.07    6.535   6.187   6.577   6.622   6.583   6.518   5.742   6.941   7.734   7.290   6.888   7.359   6.907   6.419   6.586
   253.39    7.278   6.536   6.385   5.666   6.996   6.440   7.594   7.977   7.146   6.332   7.341   6.810   7.014   7.567   7.741
   232.71    6.707   6.764   6.875   5.601   6.958   8.315   7.703   7.683   6.475   6.940   7.691   6.593   6.199   7.226   7.495
   212.04    6.228   6.635   5.929   5.468   6.452   7.399   7.228   7.519   6.753   6.799   6.563   7.085   6.855   7.366   7.094
   191.36    6.997   7.173   5.963   5.314   5.927   7.227   7.138   7.369   7.188   7.456   6.712   6.840   6.926   7.787   8.655
   170.68    7.232   6.798   7.253   6.145   6.335   6.977   8.274   7.066   7.355   6.809   6.424   7.064   6.726   7.182   8.148
   150.00    6.400   7.708   7.756   6.208   6.406   6.836   7.833   8.035   6.968   6.789   6.905   6.769   6.483   6.924   7.408
   129.32    6.645   7.707   8.205   7.404   6.954   7.253   8.128   8.369   8.200   8.223   7.107   6.932   6.978   7.047   6.999
   108.64    8.857   8.834   8.328   8.822   7.908   7.510   8.378   7.771   7.492   7.642   7.971   7.324   6.704   6.936   6.910
    87.96    9.070   9.082   8.640   9.520   8.333   6.928   8.263   7.816   6.791   7.646   7.556   7.414   6.628   6.819   7.009
    67.29    8.378   8.776   9.435   8.722   8.906   8.946   9.125   7.386   7.902   7.862   7.669   7.317   6.529   6.789   7.227
    46.61    8.667   8.609   8.414   8.284   8.350   9.080   8.569   7.950   7.260   7.249   7.958   7.363   6.649   6.186   7.005
    25.93    7.971   8.005   8.320   8.600   8.432   8.458   7.702   7.407   6.612   7.070   6.695   6.984   6.592   6.658   6.171
     5.25    7.303   7.641   8.019   7.313   8.254   7.668   8.078   7.675   7.620   5.800   6.118   6.582   6.415   6.521   6.540

   Height   Standard deviation at grid points for the v component:
   294.75    6.006   6.006   6.006   6.006   6.006   6.006   6.006   6.006   6.006   6.006   6.006   6.006   6.006   6.006   6.006
   274.07    6.006   6.006   6.006   6.006   6.006   6.006   6.006   6.006   6.006   6.006   6.006   6.006   6.006   6.006   6.006
   253.39    6.006   6.006   6.006   6.006   6.006   6.006   6.006   6.006   6.006   6.006   6.006   6.006   6.006   6.006   6.006
   232.71    6.006   6.006   6.006   6.006   6.006   6.006   6.006   6.006   6.006   6.006   6.006   6.006   6.006   6.006   6.006
   212.04    6.006   6.006   6.006   6.006   6.006   6.006   6.006   6.006   6.006   6.006   6.006   6.006   6.006   6.006   6.006
   191.36    6.006   6.006   6.006   6.006   6.006   6.006   6.006   6.006   6.006   6.006   6.006   6.006   6.006   6.006   6.006
   170.68    6.006   6.006   6.006   6.006   6.006   6.006   6.006   6.006   6.006   6.006   6.006   6.006   6.006   6.006   6.006
   150.00    6.006   6.006   6.006   6.006   6.006   6.006   6.006   6.006   6.006   6.006   6.006   6.006   6.006   6.006   6.006
   129.32    6.006   6.006   6.006   6.006   6.006   6.006   6.006   6.006   6.006   6.006   6.006   6.006   6.006   6.006   6.006
   108.64    6.006   6.006   6.006   6.006   6.006   6.006   6.006   6.006   6.006   6.006   6.006   6.006   6.006   6.006   6.006
    87.96    6.006   6.006   6.006   6.006   6.006   6.006   6.006   6.006   6.006   6.006   6.006   6.006   6.006   6.006   6.006
    67.29    6.006   6.006   6.006   6.006   6.006   6.006   6.006   6.006   6.006   6.006   6.006   6.006   6.006   6.006   6.006
    46.61    6.006   6.006   6.006   6.006   6.006   6.006   6.006   6.006   6.006   6.006   6.006   6.006   6.006   6.006   6.006
    25.93    6.006   6.006   6.006   6.006   6.006   6.006   6.006   6.006   6.006   6.006   6.006   6.006   6.006   6.006   6.006
     5.25    6.006   6.006   6.006   6.006   6.006   6.006   6.006   6.006   6.006   6.006   6.006   6.006   6.006   6.006   6.006

   Height   Standard deviation at grid points for the w component:
   294.75    3.592   3.592   3.592   3.592   3.592   3.592   3.592   3.592   3.592   3.592   3.592   3.592   3.592   3.592   3.592
   274.07    3.592   3.592   3.592   3.592   3.592   3.592   3.592   3.592   3.592   3.592   3.592   3.592   3.592   3.592   3.592
   253.39    3.592   3.592   3.592   3.592   3.592   3.592   3.592   3.592   3.592   3.592   3.592   3.592   3.592   3.592   3.592
   232.71    3.592   3.592   3.592   3.592   3.592   3.592   3.592   3.592   3.592   3.592   3.592   3.592   3.592   3.592   3.592
   212.04    3.592   3.592   3.592   3.592   3.592   3.592   3.592   3.592   3.592   3.592   3.592   3.592   3.592   3.592   3.592
   191.36    3.592   3.592   3.592   3.592   3.592   3.592   3.592   3.592   3.592   3.592   3.592   3.592   3.592   3.592   3.592
   170.68    3.592   3.592   3.592   3.592   3.592   3.592   3.592   3.592   3.592   3.592   3.592   3.592   3.592   3.592   3.592
   150.00    3.592   3.592   3.592   3.592   3.592   3.592   3.592   3.592   3.592   3.592   3.592   3.592   3.592   3.592   3.592
   129.32    3.592   3.592   3.592   3.592   3.592   3.592   3.592   3.592   3.592   3.592   3.592   3.592   3.592   3.592   3.592
   108.64    3.592   3.592   3.592   3.592   3.592   3.592   3.592   3.592   3.592   3.592   3.592   3.592   3.592   3.592   3.592
    87.96    3.592   3.592   3.592   3.592   3.592   3.592   3.592   3.592   3.592   3.592   3.592   3.592   3.592   3.592   3.592
    67.29    3.592   3.592   3.592   3.592   3.592   3.592   3.592   3.592   3.592   3.592   3.592   3.592   3.592   3.592   3.592
    46.61    3.592   3.592   3.592   3.592   3.592   3.592   3.592   3.592   3.592   3.592   3.592   3.592   3.592   3.592   3.592
    25.93    3.592   3.592   3.592   3.592   3.592   3.592   3.592   3.592   3.592   3.592   3.592   3.592   3.592   3.592   3.592
     5.25    3.592   3.592   3.592   3.592   3.592   3.592   3.592   3.592   3.592   3.592   3.592   3.592   3.592   3.592   3.592

   Mean standard deviation across all grid points:
      u component:    7.251 m/s
      v component:    6.006 m/s
      w component:    3.592 m/s


U-component (X) statistics from the interpolated hub point:

   Mean =  73.0000 m/s
   TI   =  11.0067 %


Processing complete.  8.5604 CPU seconds used.
