
This summary file was generated by TurbSim (from OpenFAST-v3.5.1-607-g88e18ed3) on 14-Dec-2024 at 20:03:48.


Runtime Options:

    929617  Random seed #1
    RANLUX  Type of random number generator
         F  Output binary HH turbulence parameters?
         F  Output formatted turbulence parameters?
         F  Output AeroDyn HH files?
         T  Output AeroDyn FF files?
         F  Output BLADED FF files?
         F  Output tower data?
         F  Output HAWC FF files?
         F  Output formatted FF files?
         T  Output coherent turbulence time step file?
 0 -  NONE  IEC turbulence models scaled to exact specified standard deviation


Turbine/Model Specifications:

        15  Vertical grid-point matrix dimension
        15  Horizontal grid-point matrix dimension
     0.100  Time step [seconds]
    60.000  Analysis time [seconds]
    60.000  Usable output time [seconds]
   150.000  Hub height [m]
   289.500  Grid height [m]
   350.000  Grid width [m]
     0.000  Vertical flow angle [degrees]
     0.000  Horizontal flow angle [degrees]


Meteorological Boundary Conditions:

    IECKAI  IEC Kaimal spectral model
         3  IEC standard: IEC 61400-3 Ed. 1: 2006
    11.000  Percent turbulence intensity, IEC 61400-3 Ed. 1: 2006
       NTM  IEC Normal Turbulence Model
       N/A  IEC Extreme Turbulence Model (ETM) "c" parameter [m/s]
       PL   Wind profile type
   150.000  Reference height [m]
     9.000  Reference wind speed [m/s]
       N/A  Jet height [m]
     0.120  Power law exponent
     0.030  Surface roughness length [m]


Non-IEC Meteorological Boundary Conditions:

       N/A  Site latitude [degrees]
       N/A  Gradient Richardson number
       N/A  Friction or shear velocity [m/s]
       N/A  Mixing layer depth [m]
       N/A  Mean hub u'w' Reynolds stress
       N/A  Mean hub u'v' Reynolds stress
       N/A  Mean hub v'w' Reynolds stress


Spatial Coherence Models:

       IEC  u-component coherence model
      NONE  v-component coherence model
      NONE  w-component coherence model
(   12.000, 0.353E-03)  u-component coherence parameters
                   N/A  v-component coherence parameters
                   N/A  w-component coherence parameters
       N/A  Coherence exponent


You have requested that the following file(s) be generated:

   Turbsim_Vhub_9_seednum_929617.Turbsim.bts (AeroDyn/TurbSim full-field wind file)


Turbulence Simulation Scaling Parameter Summary:

   Turbulence model used                            =  IEC Kaimal
   Turbulence characteristic                        =  User-specified
   IEC standard                                     =  IEC 61400-3 Ed. 1: 2006
   Mean wind speed at hub height                    =    9.000 m/s
   Characteristic value of standard deviation       =    0.990 m/s
   Turbulence scale                                 =   42.000 m
   u-component integral scale                       =  340.200 m
   Coherency scale                                  =  340.200 m
   Characteristic value of hub turbulence intensity =   11.000%
   Gradient Richardson number                       =    0.000

   Wind profile type                                =  Power law
   Power law exponent                               =    0.120
   Mean shear across rotor disk                     =    0.013 (m/s)/m
   Assumed rotor diameter                           =  289.500 m
   Surface roughness length                         =    0.030 m

   Nyquist frequency of turbulent wind field        =    5.000 Hz

   Number of time steps in the FFT                  =      600
   Number of time steps output                      =      600
   Number of points simulated                       =      225


Mean Flow Angles:

   Vertical   =   0.0 degrees
   Horizontal =   0.0 degrees

Mean Wind Speed Profile:

   Height    Wind Speed   Horizontal Angle  Vertical Angle  U-comp (X)   V-comp (Y)   W-comp (Z)
     (m)        (m/s)         (degrees)       (degrees)       (m/s)        (m/s)        (m/s)   
   ------    ----------   ----------------  --------------  ----------   ----------   ----------
    294.8        9.76            0.00            0.00          9.76         0.00         0.00
    274.1        9.68            0.00            0.00          9.68         0.00         0.00
    253.4        9.58            0.00            0.00          9.58         0.00         0.00
    232.7        9.49            0.00            0.00          9.49         0.00         0.00
    212.0        9.38            0.00            0.00          9.38         0.00         0.00
    191.4        9.27            0.00            0.00          9.27         0.00         0.00
    170.7        9.14            0.00            0.00          9.14         0.00         0.00
    150.0        9.00            0.00            0.00          9.00         0.00         0.00
    129.3        8.84            0.00            0.00          8.84         0.00         0.00
    108.6        8.66            0.00            0.00          8.66         0.00         0.00
     88.0        8.44            0.00            0.00          8.44         0.00         0.00
     67.3        8.17            0.00            0.00          8.17         0.00         0.00
     46.6        7.82            0.00            0.00          7.82         0.00         0.00
     25.9        7.29            0.00            0.00          7.29         0.00         0.00
      5.2        6.02            0.00            0.00          6.02         0.00         0.00


Harvested Random Seeds after Generation of the Random Numbers:

      1881463 K 1
            0 K 2


Hub-Height Simulated Turbulence Statistical Summary:

   Type of Wind        Min (m/s)   Mean (m/s)    Max (m/s)  Sigma (m/s)       TI (%)
   ----------------    ---------   ----------    ---------  -----------       ------
   Longitudinal (u)         7.19         9.00        10.70        0.850        9.446
   Lateral (v)             -1.85        -0.00         1.37        0.656        7.286
   Vertical (w)            -1.25        -0.00         1.25        0.458        5.093
   U component              7.19         9.00        10.70        0.850        9.446
   V component             -1.85        -0.00         1.37        0.656        7.286
   W component             -1.25        -0.00         1.25        0.458        5.093
   Horizontal (U&V)         7.20         9.02        10.72        0.841        9.315
   Total                    7.21         9.04        10.73        0.839        9.286

                       Min Reynolds     Mean Reynolds    Max Reynolds    Correlation
   Product             Stress (m/s)^2   Stress (m/s)^2   Stress (m/s)^2  Coefficient
   ----------------    --------------   --------------   --------------  -----------
   u'w'                     -1.397             0.006             1.307         0.016
   u'v'                     -1.116             0.135             1.769         0.242
   v'w'                     -1.600            -0.079             0.924        -0.264


   Friction Velocity (Ustar)  =      0.078 m/s
   Maximum Instantaneous TKE  =      2.193 (m/s)^2
   Maximum Instantaneous CTKE =      1.128 (m/s)^2


Grid Point Variance Summary:

   Y-coord -175.00 -150.00 -125.00 -100.00  -75.00  -50.00  -25.00    0.00   25.00   50.00   75.00  100.00  125.00  150.00  175.00

   Height   Standard deviation at grid points for the u component:
   294.75    0.714   0.792   0.659   0.535   0.773   0.757   0.580   0.632   0.573   0.573   0.742   0.543   0.561   0.628   0.519
   274.07    0.555   0.514   0.482   0.650   0.772   0.650   0.563   0.600   0.685   0.491   0.627   0.611   0.588   0.517   0.560
   253.39    0.549   0.554   0.841   0.632   0.560   0.634   0.668   0.773   0.623   0.681   0.598   0.632   0.715   0.485   0.675
   232.71    0.556   0.664   0.721   0.772   0.547   0.660   0.528   0.798   0.935   0.600   0.549   0.555   0.518   0.682   0.621
   212.04    0.680   0.575   0.565   0.696   0.679   0.796   0.710   0.789   0.734   0.793   0.511   0.619   0.601   0.632   0.536
   191.36    0.514   0.660   0.544   0.511   0.575   0.624   0.653   0.649   0.591   0.670   0.545   0.617   0.564   0.482   0.508
   170.68    0.704   0.492   0.654   0.641   0.526   0.664   0.541   0.580   0.485   0.539   0.498   0.641   0.526   0.646   0.586
   150.00    0.665   0.703   0.565   0.639   0.698   0.697   0.796   0.850   0.689   0.802   0.584   0.574   0.595   0.650   0.585
   129.32    0.623   0.671   0.485   0.592   0.566   0.483   0.545   0.604   0.751   0.628   0.565   0.589   0.580   0.522   0.706
   108.64    0.565   0.607   0.608   0.663   0.828   0.597   0.747   0.536   0.577   0.678   0.773   0.914   0.778   0.508   0.531
    87.96    0.840   0.575   0.657   0.539   0.708   0.698   0.550   0.808   0.961   0.853   0.675   0.837   0.709   0.727   0.573
    67.29    0.899   0.707   0.601   0.517   0.609   0.574   0.698   0.749   0.881   0.731   0.534   0.586   0.641   0.597   0.547
    46.61    0.900   0.823   0.762   0.569   0.675   0.603   0.653   0.615   0.836   0.817   0.521   0.507   0.558   0.554   0.738
    25.93    0.729   0.801   0.626   0.515   0.586   0.597   0.591   0.516   0.765   0.897   0.534   0.466   0.681   0.633   0.694
     5.25    0.668   0.677   0.477   0.613   0.720   0.753   0.533   0.573   0.742   0.808   0.591   0.616   0.709   0.657   0.719

   Height   Standard deviation at grid points for the v component:
   294.75    0.656   0.656   0.656   0.656   0.656   0.656   0.656   0.656   0.656   0.656   0.656   0.656   0.656   0.656   0.656
   274.07    0.656   0.656   0.656   0.656   0.656   0.656   0.656   0.656   0.656   0.656   0.656   0.656   0.656   0.656   0.656
   253.39    0.656   0.656   0.656   0.656   0.656   0.656   0.656   0.656   0.656   0.656   0.656   0.656   0.656   0.656   0.656
   232.71    0.656   0.656   0.656   0.656   0.656   0.656   0.656   0.656   0.656   0.656   0.656   0.656   0.656   0.656   0.656
   212.04    0.656   0.656   0.656   0.656   0.656   0.656   0.656   0.656   0.656   0.656   0.656   0.656   0.656   0.656   0.656
   191.36    0.656   0.656   0.656   0.656   0.656   0.656   0.656   0.656   0.656   0.656   0.656   0.656   0.656   0.656   0.656
   170.68    0.656   0.656   0.656   0.656   0.656   0.656   0.656   0.656   0.656   0.656   0.656   0.656   0.656   0.656   0.656
   150.00    0.656   0.656   0.656   0.656   0.656   0.656   0.656   0.656   0.656   0.656   0.656   0.656   0.656   0.656   0.656
   129.32    0.656   0.656   0.656   0.656   0.656   0.656   0.656   0.656   0.656   0.656   0.656   0.656   0.656   0.656   0.656
   108.64    0.656   0.656   0.656   0.656   0.656   0.656   0.656   0.656   0.656   0.656   0.656   0.656   0.656   0.656   0.656
    87.96    0.656   0.656   0.656   0.656   0.656   0.656   0.656   0.656   0.656   0.656   0.656   0.656   0.656   0.656   0.656
    67.29    0.656   0.656   0.656   0.656   0.656   0.656   0.656   0.656   0.656   0.656   0.656   0.656   0.656   0.656   0.656
    46.61    0.656   0.656   0.656   0.656   0.656   0.656   0.656   0.656   0.656   0.656   0.656   0.656   0.656   0.656   0.656
    25.93    0.656   0.656   0.656   0.656   0.656   0.656   0.656   0.656   0.656   0.656   0.656   0.656   0.656   0.656   0.656
     5.25    0.656   0.656   0.656   0.656   0.656   0.656   0.656   0.656   0.656   0.656   0.656   0.656   0.656   0.656   0.656

   Height   Standard deviation at grid points for the w component:
   294.75    0.458   0.458   0.458   0.458   0.458   0.458   0.458   0.458   0.458   0.458   0.458   0.458   0.458   0.458   0.458
   274.07    0.458   0.458   0.458   0.458   0.458   0.458   0.458   0.458   0.458   0.458   0.458   0.458   0.458   0.458   0.458
   253.39    0.458   0.458   0.458   0.458   0.458   0.458   0.458   0.458   0.458   0.458   0.458   0.458   0.458   0.458   0.458
   232.71    0.458   0.458   0.458   0.458   0.458   0.458   0.458   0.458   0.458   0.458   0.458   0.458   0.458   0.458   0.458
   212.04    0.458   0.458   0.458   0.458   0.458   0.458   0.458   0.458   0.458   0.458   0.458   0.458   0.458   0.458   0.458
   191.36    0.458   0.458   0.458   0.458   0.458   0.458   0.458   0.458   0.458   0.458   0.458   0.458   0.458   0.458   0.458
   170.68    0.458   0.458   0.458   0.458   0.458   0.458   0.458   0.458   0.458   0.458   0.458   0.458   0.458   0.458   0.458
   150.00    0.458   0.458   0.458   0.458   0.458   0.458   0.458   0.458   0.458   0.458   0.458   0.458   0.458   0.458   0.458
   129.32    0.458   0.458   0.458   0.458   0.458   0.458   0.458   0.458   0.458   0.458   0.458   0.458   0.458   0.458   0.458
   108.64    0.458   0.458   0.458   0.458   0.458   0.458   0.458   0.458   0.458   0.458   0.458   0.458   0.458   0.458   0.458
    87.96    0.458   0.458   0.458   0.458   0.458   0.458   0.458   0.458   0.458   0.458   0.458   0.458   0.458   0.458   0.458
    67.29    0.458   0.458   0.458   0.458   0.458   0.458   0.458   0.458   0.458   0.458   0.458   0.458   0.458   0.458   0.458
    46.61    0.458   0.458   0.458   0.458   0.458   0.458   0.458   0.458   0.458   0.458   0.458   0.458   0.458   0.458   0.458
    25.93    0.458   0.458   0.458   0.458   0.458   0.458   0.458   0.458   0.458   0.458   0.458   0.458   0.458   0.458   0.458
     5.25    0.458   0.458   0.458   0.458   0.458   0.458   0.458   0.458   0.458   0.458   0.458   0.458   0.458   0.458   0.458

   Mean standard deviation across all grid points:
      u component:    0.641 m/s
      v component:    0.656 m/s
      w component:    0.458 m/s


U-component (X) statistics from the interpolated hub point:

   Mean =   9.0000 m/s
   TI   =   9.4461 %


Processing complete.  6.3684 CPU seconds used.
