
This summary file was generated by TurbSim (from OpenFAST-v3.5.1-607-g88e18ed3) on 14-Dec-2024 at 20:03:40.


Runtime Options:

    316375  Random seed #1
    RANLUX  Type of random number generator
         F  Output binary HH turbulence parameters?
         F  Output formatted turbulence parameters?
         F  Output AeroDyn HH files?
         T  Output AeroDyn FF files?
         F  Output BLADED FF files?
         F  Output tower data?
         F  Output HAWC FF files?
         F  Output formatted FF files?
         T  Output coherent turbulence time step file?
 0 -  NONE  IEC turbulence models scaled to exact specified standard deviation


Turbine/Model Specifications:

        15  Vertical grid-point matrix dimension
        15  Horizontal grid-point matrix dimension
     0.100  Time step [seconds]
    60.000  Analysis time [seconds]
    60.000  Usable output time [seconds]
   150.000  Hub height [m]
   289.500  Grid height [m]
   350.000  Grid width [m]
     0.000  Vertical flow angle [degrees]
     0.000  Horizontal flow angle [degrees]


Meteorological Boundary Conditions:

    IECKAI  IEC Kaimal spectral model
         3  IEC standard: IEC 61400-3 Ed. 1: 2006
    11.000  Percent turbulence intensity, IEC 61400-3 Ed. 1: 2006
       NTM  IEC Normal Turbulence Model
       N/A  IEC Extreme Turbulence Model (ETM) "c" parameter [m/s]
       PL   Wind profile type
   150.000  Reference height [m]
    89.000  Reference wind speed [m/s]
       N/A  Jet height [m]
     0.120  Power law exponent
     0.030  Surface roughness length [m]


Non-IEC Meteorological Boundary Conditions:

       N/A  Site latitude [degrees]
       N/A  Gradient Richardson number
       N/A  Friction or shear velocity [m/s]
       N/A  Mixing layer depth [m]
       N/A  Mean hub u'w' Reynolds stress
       N/A  Mean hub u'v' Reynolds stress
       N/A  Mean hub v'w' Reynolds stress


Spatial Coherence Models:

       IEC  u-component coherence model
      NONE  v-component coherence model
      NONE  w-component coherence model
(   12.000, 0.353E-03)  u-component coherence parameters
                   N/A  v-component coherence parameters
                   N/A  w-component coherence parameters
       N/A  Coherence exponent


You have requested that the following file(s) be generated:

   Turbsim_Vhub_89_seednum_316375.Turbsim.bts (AeroDyn/TurbSim full-field wind file)


Turbulence Simulation Scaling Parameter Summary:

   Turbulence model used                            =  IEC Kaimal
   Turbulence characteristic                        =  User-specified
   IEC standard                                     =  IEC 61400-3 Ed. 1: 2006
   Mean wind speed at hub height                    =   89.000 m/s
   Characteristic value of standard deviation       =    9.790 m/s
   Turbulence scale                                 =   42.000 m
   u-component integral scale                       =  340.200 m
   Coherency scale                                  =  340.200 m
   Characteristic value of hub turbulence intensity =   11.000%
   Gradient Richardson number                       =    0.000

   Wind profile type                                =  Power law
   Power law exponent                               =    0.120
   Mean shear across rotor disk                     =    0.128 (m/s)/m
   Assumed rotor diameter                           =  289.500 m
   Surface roughness length                         =    0.030 m

   Nyquist frequency of turbulent wind field        =    5.000 Hz

   Number of time steps in the FFT                  =      600
   Number of time steps output                      =      600
   Number of points simulated                       =      225


Mean Flow Angles:

   Vertical   =   0.0 degrees
   Horizontal =   0.0 degrees

Mean Wind Speed Profile:

   Height    Wind Speed   Horizontal Angle  Vertical Angle  U-comp (X)   V-comp (Y)   W-comp (Z)
     (m)        (m/s)         (degrees)       (degrees)       (m/s)        (m/s)        (m/s)   
   ------    ----------   ----------------  --------------  ----------   ----------   ----------
    294.8       96.51            0.00            0.00         96.51         0.00         0.00
    274.1       95.68            0.00            0.00         95.68         0.00         0.00
    253.4       94.78            0.00            0.00         94.78         0.00         0.00
    232.7       93.82            0.00            0.00         93.82         0.00         0.00
    212.0       92.77            0.00            0.00         92.77         0.00         0.00
    191.4       91.64            0.00            0.00         91.64         0.00         0.00
    170.7       90.39            0.00            0.00         90.39         0.00         0.00
    150.0       89.00            0.00            0.00         89.00         0.00         0.00
    129.3       87.43            0.00            0.00         87.43         0.00         0.00
    108.6       85.62            0.00            0.00         85.62         0.00         0.00
     88.0       83.48            0.00            0.00         83.48         0.00         0.00
     67.3       80.84            0.00            0.00         80.84         0.00         0.00
     46.6       77.35            0.00            0.00         77.35         0.00         0.00
     25.9       72.10            0.00            0.00         72.10         0.00         0.00
      5.2       59.52            0.00            0.00         59.52         0.00         0.00


Harvested Random Seeds after Generation of the Random Numbers:

      1881463 K 1
            0 K 2


Hub-Height Simulated Turbulence Statistical Summary:

   Type of Wind        Min (m/s)   Mean (m/s)    Max (m/s)  Sigma (m/s)       TI (%)
   ----------------    ---------   ----------    ---------  -----------       ------
   Longitudinal (u)        63.43        89.00       111.68        7.898        8.874
   Lateral (v)            -22.20        -0.00        19.74        7.315        8.219
   Vertical (w)           -13.84         0.00        12.97        4.320        4.854
   U component             63.43        89.00       111.68        7.898        8.874
   V component            -22.20        -0.00        19.74        7.315        8.219
   W component            -13.84         0.00        12.97        4.320        4.854
   Horizontal (U&V)        63.43        89.30       111.68        7.921        8.870
   Total                   63.46        89.40       111.68        7.914        8.852

                       Min Reynolds     Mean Reynolds    Max Reynolds    Correlation
   Product             Stress (m/s)^2   Stress (m/s)^2   Stress (m/s)^2  Coefficient
   ----------------    --------------   --------------   --------------  -----------
   u'w'                   -150.909             0.599           174.323         0.018
   u'v'                   -258.875             2.677           274.868         0.046
   v'w'                    -92.931             4.000           132.461         0.127


   Friction Velocity (Ustar)  =      0.774 m/s
   Maximum Instantaneous TKE  =    328.596 (m/s)^2
   Maximum Instantaneous CTKE =    151.140 (m/s)^2


Grid Point Variance Summary:

   Y-coord -175.00 -150.00 -125.00 -100.00  -75.00  -50.00  -25.00    0.00   25.00   50.00   75.00  100.00  125.00  150.00  175.00

   Height   Standard deviation at grid points for the u component:
   294.75    9.901   8.697   7.974   8.430   7.716   6.644   7.208   6.707   7.170   7.649   9.004   9.434   9.922  10.819  12.226
   274.07    9.652   8.385   8.100   8.326   7.366   7.063   7.550   7.507   8.720   6.223   7.708   8.795   9.544  11.729  12.400
   253.39    9.308   7.917   8.050   7.802   7.435   7.044   7.529   7.229   8.700   8.338   7.399   9.415  10.415  11.274  12.145
   232.71    9.612   9.425   8.116   7.317   7.783   6.932   7.192   7.451   8.093   9.254   9.401   9.200   9.901  10.537  11.890
   212.04    8.843   8.994   8.386   8.305   7.769   7.526   7.269   8.470   9.130   9.965  10.999  10.225   9.033   9.953  10.256
   191.36    7.991   8.871   8.143   8.041   7.716   7.106   7.149   8.564   8.557   9.455  10.407   9.884  10.245   9.982  10.131
   170.68    8.662   8.464   7.977   6.887   7.048   7.694   7.684   7.891   8.300   9.311   9.894   9.656   9.863   9.936   8.722
   150.00    7.976   7.780   7.768   7.094   7.613   7.694   7.259   7.898   9.272   9.541   9.812   9.023   9.204   9.025   9.674
   129.32    8.158   7.578   7.673   7.284   7.588   7.735   6.562   7.744   9.491   8.179   8.568   8.832   9.597   9.269   8.502
   108.64    7.493   7.718   7.217   7.578   8.559   7.206   8.102   7.594   8.412   8.572   7.498   8.070   9.110   9.630   9.951
    87.96    7.062   7.631   8.225   8.896   8.657   8.298   8.286   9.267   8.323   7.848   6.718   6.374   8.441   9.355   8.218
    67.29    7.347   7.722   8.683   8.308   9.351   9.520   7.698   9.391   9.892   7.617   6.899   7.104   7.832   8.320   8.893
    46.61    8.327   8.113   7.941   7.457   9.404   9.300   9.441   9.542   9.373   8.488   7.541   6.932   7.148   8.326   8.764
    25.93    9.066   8.140   8.254   8.127   9.555   9.607   9.652   9.217   9.174   8.162   7.868   7.057   5.993   7.463   7.150
     5.25    8.992   7.928   8.219   8.639   9.077   9.319  10.598   7.837   8.199   7.952   8.706   8.449   7.671   6.856   8.236

   Height   Standard deviation at grid points for the v component:
   294.75    7.315   7.315   7.315   7.315   7.315   7.315   7.315   7.315   7.315   7.315   7.315   7.315   7.315   7.315   7.315
   274.07    7.315   7.315   7.315   7.315   7.315   7.315   7.315   7.315   7.315   7.315   7.315   7.315   7.315   7.315   7.315
   253.39    7.315   7.315   7.315   7.315   7.315   7.315   7.315   7.315   7.315   7.315   7.315   7.315   7.315   7.315   7.315
   232.71    7.315   7.315   7.315   7.315   7.315   7.315   7.315   7.315   7.315   7.315   7.315   7.315   7.315   7.315   7.315
   212.04    7.315   7.315   7.315   7.315   7.315   7.315   7.315   7.315   7.315   7.315   7.315   7.315   7.315   7.315   7.315
   191.36    7.315   7.315   7.315   7.315   7.315   7.315   7.315   7.315   7.315   7.315   7.315   7.315   7.315   7.315   7.315
   170.68    7.315   7.315   7.315   7.315   7.315   7.315   7.315   7.315   7.315   7.315   7.315   7.315   7.315   7.315   7.315
   150.00    7.315   7.315   7.315   7.315   7.315   7.315   7.315   7.315   7.315   7.315   7.315   7.315   7.315   7.315   7.315
   129.32    7.315   7.315   7.315   7.315   7.315   7.315   7.315   7.315   7.315   7.315   7.315   7.315   7.315   7.315   7.315
   108.64    7.315   7.315   7.315   7.315   7.315   7.315   7.315   7.315   7.315   7.315   7.315   7.315   7.315   7.315   7.315
    87.96    7.315   7.315   7.315   7.315   7.315   7.315   7.315   7.315   7.315   7.315   7.315   7.315   7.315   7.315   7.315
    67.29    7.315   7.315   7.315   7.315   7.315   7.315   7.315   7.315   7.315   7.315   7.315   7.315   7.315   7.315   7.315
    46.61    7.315   7.315   7.315   7.315   7.315   7.315   7.315   7.315   7.315   7.315   7.315   7.315   7.315   7.315   7.315
    25.93    7.315   7.315   7.315   7.315   7.315   7.315   7.315   7.315   7.315   7.315   7.315   7.315   7.315   7.315   7.315
     5.25    7.315   7.315   7.315   7.315   7.315   7.315   7.315   7.315   7.315   7.315   7.315   7.315   7.315   7.315   7.315

   Height   Standard deviation at grid points for the w component:
   294.75    4.320   4.320   4.320   4.320   4.320   4.320   4.320   4.320   4.320   4.320   4.320   4.320   4.320   4.320   4.320
   274.07    4.320   4.320   4.320   4.320   4.320   4.320   4.320   4.320   4.320   4.320   4.320   4.320   4.320   4.320   4.320
   253.39    4.320   4.320   4.320   4.320   4.320   4.320   4.320   4.320   4.320   4.320   4.320   4.320   4.320   4.320   4.320
   232.71    4.320   4.320   4.320   4.320   4.320   4.320   4.320   4.320   4.320   4.320   4.320   4.320   4.320   4.320   4.320
   212.04    4.320   4.320   4.320   4.320   4.320   4.320   4.320   4.320   4.320   4.320   4.320   4.320   4.320   4.320   4.320
   191.36    4.320   4.320   4.320   4.320   4.320   4.320   4.320   4.320   4.320   4.320   4.320   4.320   4.320   4.320   4.320
   170.68    4.320   4.320   4.320   4.320   4.320   4.320   4.320   4.320   4.320   4.320   4.320   4.320   4.320   4.320   4.320
   150.00    4.320   4.320   4.320   4.320   4.320   4.320   4.320   4.320   4.320   4.320   4.320   4.320   4.320   4.320   4.320
   129.32    4.320   4.320   4.320   4.320   4.320   4.320   4.320   4.320   4.320   4.320   4.320   4.320   4.320   4.320   4.320
   108.64    4.320   4.320   4.320   4.320   4.320   4.320   4.320   4.320   4.320   4.320   4.320   4.320   4.320   4.320   4.320
    87.96    4.320   4.320   4.320   4.320   4.320   4.320   4.320   4.320   4.320   4.320   4.320   4.320   4.320   4.320   4.320
    67.29    4.320   4.320   4.320   4.320   4.320   4.320   4.320   4.320   4.320   4.320   4.320   4.320   4.320   4.320   4.320
    46.61    4.320   4.320   4.320   4.320   4.320   4.320   4.320   4.320   4.320   4.320   4.320   4.320   4.320   4.320   4.320
    25.93    4.320   4.320   4.320   4.320   4.320   4.320   4.320   4.320   4.320   4.320   4.320   4.320   4.320   4.320   4.320
     5.25    4.320   4.320   4.320   4.320   4.320   4.320   4.320   4.320   4.320   4.320   4.320   4.320   4.320   4.320   4.320

   Mean standard deviation across all grid points:
      u component:    8.496 m/s
      v component:    7.315 m/s
      w component:    4.320 m/s


U-component (X) statistics from the interpolated hub point:

   Mean =  89.0000 m/s
   TI   =   8.8738 %


Processing complete.  8.1523 CPU seconds used.
