
This summary file was generated by TurbSim (from OpenFAST-v3.5.1-607-g88e18ed3) on 14-Dec-2024 at 20:01:57.


Runtime Options:

      8388  Random seed #1
    RANLUX  Type of random number generator
         F  Output binary HH turbulence parameters?
         F  Output formatted turbulence parameters?
         F  Output AeroDyn HH files?
         T  Output AeroDyn FF files?
         F  Output BLADED FF files?
         F  Output tower data?
         F  Output HAWC FF files?
         F  Output formatted FF files?
         T  Output coherent turbulence time step file?
 0 -  NONE  IEC turbulence models scaled to exact specified standard deviation


Turbine/Model Specifications:

        15  Vertical grid-point matrix dimension
        15  Horizontal grid-point matrix dimension
     0.100  Time step [seconds]
    60.000  Analysis time [seconds]
    60.000  Usable output time [seconds]
   150.000  Hub height [m]
   289.500  Grid height [m]
   350.000  Grid width [m]
     0.000  Vertical flow angle [degrees]
     0.000  Horizontal flow angle [degrees]


Meteorological Boundary Conditions:

    IECKAI  IEC Kaimal spectral model
         3  IEC standard: IEC 61400-3 Ed. 1: 2006
    11.000  Percent turbulence intensity, IEC 61400-3 Ed. 1: 2006
       NTM  IEC Normal Turbulence Model
       N/A  IEC Extreme Turbulence Model (ETM) "c" parameter [m/s]
       PL   Wind profile type
   150.000  Reference height [m]
    81.000  Reference wind speed [m/s]
       N/A  Jet height [m]
     0.120  Power law exponent
     0.030  Surface roughness length [m]


Non-IEC Meteorological Boundary Conditions:

       N/A  Site latitude [degrees]
       N/A  Gradient Richardson number
       N/A  Friction or shear velocity [m/s]
       N/A  Mixing layer depth [m]
       N/A  Mean hub u'w' Reynolds stress
       N/A  Mean hub u'v' Reynolds stress
       N/A  Mean hub v'w' Reynolds stress


Spatial Coherence Models:

       IEC  u-component coherence model
      NONE  v-component coherence model
      NONE  w-component coherence model
(   12.000, 0.353E-03)  u-component coherence parameters
                   N/A  v-component coherence parameters
                   N/A  w-component coherence parameters
       N/A  Coherence exponent


You have requested that the following file(s) be generated:

   Turbsim_Vhub_81_seednum_8388.Turbsim.bts (AeroDyn/TurbSim full-field wind file)


Turbulence Simulation Scaling Parameter Summary:

   Turbulence model used                            =  IEC Kaimal
   Turbulence characteristic                        =  User-specified
   IEC standard                                     =  IEC 61400-3 Ed. 1: 2006
   Mean wind speed at hub height                    =   81.000 m/s
   Characteristic value of standard deviation       =    8.910 m/s
   Turbulence scale                                 =   42.000 m
   u-component integral scale                       =  340.200 m
   Coherency scale                                  =  340.200 m
   Characteristic value of hub turbulence intensity =   11.000%
   Gradient Richardson number                       =    0.000

   Wind profile type                                =  Power law
   Power law exponent                               =    0.120
   Mean shear across rotor disk                     =    0.116 (m/s)/m
   Assumed rotor diameter                           =  289.500 m
   Surface roughness length                         =    0.030 m

   Nyquist frequency of turbulent wind field        =    5.000 Hz

   Number of time steps in the FFT                  =      600
   Number of time steps output                      =      600
   Number of points simulated                       =      225


Mean Flow Angles:

   Vertical   =   0.0 degrees
   Horizontal =   0.0 degrees

Mean Wind Speed Profile:

   Height    Wind Speed   Horizontal Angle  Vertical Angle  U-comp (X)   V-comp (Y)   W-comp (Z)
     (m)        (m/s)         (degrees)       (degrees)       (m/s)        (m/s)        (m/s)   
   ------    ----------   ----------------  --------------  ----------   ----------   ----------
    294.8       87.84            0.00            0.00         87.84         0.00         0.00
    274.1       87.08            0.00            0.00         87.08         0.00         0.00
    253.4       86.26            0.00            0.00         86.26         0.00         0.00
    232.7       85.38            0.00            0.00         85.38         0.00         0.00
    212.0       84.44            0.00            0.00         84.44         0.00         0.00
    191.4       83.40            0.00            0.00         83.40         0.00         0.00
    170.7       82.27            0.00            0.00         82.27         0.00         0.00
    150.0       81.00            0.00            0.00         81.00         0.00         0.00
    129.3       79.57            0.00            0.00         79.57         0.00         0.00
    108.6       77.92            0.00            0.00         77.92         0.00         0.00
     88.0       75.98            0.00            0.00         75.98         0.00         0.00
     67.3       73.57            0.00            0.00         73.57         0.00         0.00
     46.6       70.40            0.00            0.00         70.40         0.00         0.00
     25.9       65.62            0.00            0.00         65.62         0.00         0.00
      5.2       54.17            0.00            0.00         54.17         0.00         0.00


Harvested Random Seeds after Generation of the Random Numbers:

      1881463 K 1
            0 K 2


Hub-Height Simulated Turbulence Statistical Summary:

   Type of Wind        Min (m/s)   Mean (m/s)    Max (m/s)  Sigma (m/s)       TI (%)
   ----------------    ---------   ----------    ---------  -----------       ------
   Longitudinal (u)        59.80        81.00       108.95        9.278       11.455
   Lateral (v)            -19.94        -0.00        19.17        6.662        8.225
   Vertical (w)           -14.04         0.00        12.27        3.958        4.887
   U component             59.80        81.00       108.95        9.278       11.455
   V component            -19.94        -0.00        19.17        6.662        8.225
   W component            -14.04         0.00        12.27        3.958        4.887
   Horizontal (U&V)        60.93        81.28       108.99        9.264       11.398
   Total                   60.98        81.37       108.99        9.262       11.382

                       Min Reynolds     Mean Reynolds    Max Reynolds    Correlation
   Product             Stress (m/s)^2   Stress (m/s)^2   Stress (m/s)^2  Coefficient
   ----------------    --------------   --------------   --------------  -----------
   u'w'                   -279.522            -3.196           157.645        -0.087
   u'v'                   -139.996             8.999           335.824         0.146
   v'w'                   -113.113            -1.817           118.308        -0.069


   Friction Velocity (Ustar)  =      1.788 m/s
   Maximum Instantaneous TKE  =    422.818 (m/s)^2
   Maximum Instantaneous CTKE =    171.057 (m/s)^2


Grid Point Variance Summary:

   Y-coord -175.00 -150.00 -125.00 -100.00  -75.00  -50.00  -25.00    0.00   25.00   50.00   75.00  100.00  125.00  150.00  175.00

   Height   Standard deviation at grid points for the u component:
   294.75    7.215   7.316   8.046   7.103   8.717   8.506   8.631   7.849   7.814   8.571   8.807   8.415   8.711   8.927   7.910
   274.07    6.971   7.347   8.402   7.569   7.940   7.970   8.042   7.121   7.346   8.563   8.885   8.167   8.683   8.217   8.224
   253.39    6.616   6.968   6.807   7.650   7.975   6.644   6.948   7.196   7.385   8.313   8.242   8.700   8.834   9.374   8.573
   232.71    6.282   6.936   7.573   8.122   8.064   6.419   7.584   8.243   6.787   6.898   8.264   8.371   7.842   8.439   8.418
   212.04    6.658   7.470   8.296   7.945   6.688   7.696   8.536   7.866   6.238   7.337   8.163   8.613   8.856   7.550   7.675
   191.36    8.362   8.137   8.042   7.503   8.776   8.751   7.637   8.117   8.391   7.476   8.159   7.974   8.233   7.735   6.698
   170.68    8.090   7.441   7.985   8.394   9.541   8.872   9.208   8.745   9.020   8.693   8.746   8.379   8.346   7.835   7.866
   150.00    7.569   7.886   7.775   9.508   9.572   9.373   8.846   9.278   8.777  10.087   9.673   8.598   8.596   8.503   8.712
   129.32    7.301   6.874   8.357   8.383   9.329   9.604   9.383   9.700  10.376   9.745   9.109   8.271   8.112   8.609   9.003
   108.64    7.631   8.318   8.204   7.690   8.153   7.823   9.377  10.397  10.026   9.936   8.364   7.166   8.039   8.023   9.070
    87.96    8.967   8.576   8.390   8.255   7.902   7.923   9.006   9.834   9.780   9.205   8.033   7.213   9.356   9.088   8.623
    67.29    9.357   8.289   7.729   7.745   7.308   8.272   8.773   8.048   7.572   8.081   8.879   8.704  10.209  10.072   8.483
    46.61    9.082   8.210   7.095   7.561   8.057   8.851   8.413   8.422   7.040   7.991   8.416   9.334  10.020   8.790   9.099
    25.93    8.558   8.824   8.450   6.912   8.051   7.882   7.595   7.316   8.186   8.957   8.838   8.845   8.770   9.228   9.967
     5.25    8.148   7.894   8.992   7.149   7.631   7.271   7.168   7.813   8.717   8.986   8.532   9.587   9.779   8.833   9.442

   Height   Standard deviation at grid points for the v component:
   294.75    6.662   6.662   6.662   6.662   6.662   6.662   6.662   6.662   6.662   6.662   6.662   6.662   6.662   6.662   6.662
   274.07    6.662   6.662   6.662   6.662   6.662   6.662   6.662   6.662   6.662   6.662   6.662   6.662   6.662   6.662   6.662
   253.39    6.662   6.662   6.662   6.662   6.662   6.662   6.662   6.662   6.662   6.662   6.662   6.662   6.662   6.662   6.662
   232.71    6.662   6.662   6.662   6.662   6.662   6.662   6.662   6.662   6.662   6.662   6.662   6.662   6.662   6.662   6.662
   212.04    6.662   6.662   6.662   6.662   6.662   6.662   6.662   6.662   6.662   6.662   6.662   6.662   6.662   6.662   6.662
   191.36    6.662   6.662   6.662   6.662   6.662   6.662   6.662   6.662   6.662   6.662   6.662   6.662   6.662   6.662   6.662
   170.68    6.662   6.662   6.662   6.662   6.662   6.662   6.662   6.662   6.662   6.662   6.662   6.662   6.662   6.662   6.662
   150.00    6.662   6.662   6.662   6.662   6.662   6.662   6.662   6.662   6.662   6.662   6.662   6.662   6.662   6.662   6.662
   129.32    6.662   6.662   6.662   6.662   6.662   6.662   6.662   6.662   6.662   6.662   6.662   6.662   6.662   6.662   6.662
   108.64    6.662   6.662   6.662   6.662   6.662   6.662   6.662   6.662   6.662   6.662   6.662   6.662   6.662   6.662   6.662
    87.96    6.662   6.662   6.662   6.662   6.662   6.662   6.662   6.662   6.662   6.662   6.662   6.662   6.662   6.662   6.662
    67.29    6.662   6.662   6.662   6.662   6.662   6.662   6.662   6.662   6.662   6.662   6.662   6.662   6.662   6.662   6.662
    46.61    6.662   6.662   6.662   6.662   6.662   6.662   6.662   6.662   6.662   6.662   6.662   6.662   6.662   6.662   6.662
    25.93    6.662   6.662   6.662   6.662   6.662   6.662   6.662   6.662   6.662   6.662   6.662   6.662   6.662   6.662   6.662
     5.25    6.662   6.662   6.662   6.662   6.662   6.662   6.662   6.662   6.662   6.662   6.662   6.662   6.662   6.662   6.662

   Height   Standard deviation at grid points for the w component:
   294.75    3.958   3.958   3.958   3.958   3.958   3.958   3.958   3.958   3.958   3.958   3.958   3.958   3.958   3.958   3.958
   274.07    3.958   3.958   3.958   3.958   3.958   3.958   3.958   3.958   3.958   3.958   3.958   3.958   3.958   3.958   3.958
   253.39    3.958   3.958   3.958   3.958   3.958   3.958   3.958   3.958   3.958   3.958   3.958   3.958   3.958   3.958   3.958
   232.71    3.958   3.958   3.958   3.958   3.958   3.958   3.958   3.958   3.958   3.958   3.958   3.958   3.958   3.958   3.958
   212.04    3.958   3.958   3.958   3.958   3.958   3.958   3.958   3.958   3.958   3.958   3.958   3.958   3.958   3.958   3.958
   191.36    3.958   3.958   3.958   3.958   3.958   3.958   3.958   3.958   3.958   3.958   3.958   3.958   3.958   3.958   3.958
   170.68    3.958   3.958   3.958   3.958   3.958   3.958   3.958   3.958   3.958   3.958   3.958   3.958   3.958   3.958   3.958
   150.00    3.958   3.958   3.958   3.958   3.958   3.958   3.958   3.958   3.958   3.958   3.958   3.958   3.958   3.958   3.958
   129.32    3.958   3.958   3.958   3.958   3.958   3.958   3.958   3.958   3.958   3.958   3.958   3.958   3.958   3.958   3.958
   108.64    3.958   3.958   3.958   3.958   3.958   3.958   3.958   3.958   3.958   3.958   3.958   3.958   3.958   3.958   3.958
    87.96    3.958   3.958   3.958   3.958   3.958   3.958   3.958   3.958   3.958   3.958   3.958   3.958   3.958   3.958   3.958
    67.29    3.958   3.958   3.958   3.958   3.958   3.958   3.958   3.958   3.958   3.958   3.958   3.958   3.958   3.958   3.958
    46.61    3.958   3.958   3.958   3.958   3.958   3.958   3.958   3.958   3.958   3.958   3.958   3.958   3.958   3.958   3.958
    25.93    3.958   3.958   3.958   3.958   3.958   3.958   3.958   3.958   3.958   3.958   3.958   3.958   3.958   3.958   3.958
     5.25    3.958   3.958   3.958   3.958   3.958   3.958   3.958   3.958   3.958   3.958   3.958   3.958   3.958   3.958   3.958

   Mean standard deviation across all grid points:
      u component:    8.288 m/s
      v component:    6.662 m/s
      w component:    3.958 m/s


U-component (X) statistics from the interpolated hub point:

   Mean =  81.0000 m/s
   TI   =  11.4546 %


Processing complete.  10.179 CPU seconds used.
