
This summary file was generated by TurbSim (from OpenFAST-v3.5.1-607-g88e18ed3) on 13-Dec-2024 at 13:49:44.


Runtime Options:

    929617  Random seed #1
    RANLUX  Type of random number generator
         F  Output binary HH turbulence parameters?
         F  Output formatted turbulence parameters?
         F  Output AeroDyn HH files?
         T  Output AeroDyn FF files?
         F  Output BLADED FF files?
         F  Output tower data?
         F  Output HAWC FF files?
         F  Output formatted FF files?
         T  Output coherent turbulence time step file?
 0 -  NONE  IEC turbulence models scaled to exact specified standard deviation


Turbine/Model Specifications:

        15  Vertical grid-point matrix dimension
        15  Horizontal grid-point matrix dimension
     0.100  Time step [seconds]
   800.000  Analysis time [seconds]
   800.000  Usable output time [seconds]
   150.000  Hub height [m]
   289.500  Grid height [m]
   350.000  Grid width [m]
     0.000  Vertical flow angle [degrees]
     0.000  Horizontal flow angle [degrees]


Meteorological Boundary Conditions:

    IECKAI  IEC Kaimal spectral model
         3  IEC standard: IEC 61400-3 Ed. 1: 2006
    11.000  Percent turbulence intensity, IEC 61400-3 Ed. 1: 2006
       NTM  IEC Normal Turbulence Model
       N/A  IEC Extreme Turbulence Model (ETM) "c" parameter [m/s]
       PL   Wind profile type
   150.000  Reference height [m]
    33.000  Reference wind speed [m/s]
       N/A  Jet height [m]
     0.120  Power law exponent
     0.030  Surface roughness length [m]


Non-IEC Meteorological Boundary Conditions:

       N/A  Site latitude [degrees]
       N/A  Gradient Richardson number
       N/A  Friction or shear velocity [m/s]
       N/A  Mixing layer depth [m]
       N/A  Mean hub u'w' Reynolds stress
       N/A  Mean hub u'v' Reynolds stress
       N/A  Mean hub v'w' Reynolds stress


Spatial Coherence Models:

       IEC  u-component coherence model
      NONE  v-component coherence model
      NONE  w-component coherence model
(   12.000, 0.353E-03)  u-component coherence parameters
                   N/A  v-component coherence parameters
                   N/A  w-component coherence parameters
       N/A  Coherence exponent


You have requested that the following file(s) be generated:

   Turbsim_Vhub_33_seednum_929617.Turbsim.bts (AeroDyn/TurbSim full-field wind file)


Turbulence Simulation Scaling Parameter Summary:

   Turbulence model used                            =  IEC Kaimal
   Turbulence characteristic                        =  User-specified
   IEC standard                                     =  IEC 61400-3 Ed. 1: 2006
   Mean wind speed at hub height                    =   33.000 m/s
   Characteristic value of standard deviation       =    3.630 m/s
   Turbulence scale                                 =   42.000 m
   u-component integral scale                       =  340.200 m
   Coherency scale                                  =  340.200 m
   Characteristic value of hub turbulence intensity =   11.000%
   Gradient Richardson number                       =    0.000

   Wind profile type                                =  Power law
   Power law exponent                               =    0.120
   Mean shear across rotor disk                     =    0.047 (m/s)/m
   Assumed rotor diameter                           =  289.500 m
   Surface roughness length                         =    0.030 m

   Nyquist frequency of turbulent wind field        =    5.000 Hz

   Number of time steps in the FFT                  =     8000
   Number of time steps output                      =     8000
   Number of points simulated                       =      225


Mean Flow Angles:

   Vertical   =   0.0 degrees
   Horizontal =   0.0 degrees

Mean Wind Speed Profile:

   Height    Wind Speed   Horizontal Angle  Vertical Angle  U-comp (X)   V-comp (Y)   W-comp (Z)
     (m)        (m/s)         (degrees)       (degrees)       (m/s)        (m/s)        (m/s)   
   ------    ----------   ----------------  --------------  ----------   ----------   ----------
    294.8       35.79            0.00            0.00         35.79         0.00         0.00
    274.1       35.48            0.00            0.00         35.48         0.00         0.00
    253.4       35.14            0.00            0.00         35.14         0.00         0.00
    232.7       34.79            0.00            0.00         34.79         0.00         0.00
    212.0       34.40            0.00            0.00         34.40         0.00         0.00
    191.4       33.98            0.00            0.00         33.98         0.00         0.00
    170.7       33.52            0.00            0.00         33.52         0.00         0.00
    150.0       33.00            0.00            0.00         33.00         0.00         0.00
    129.3       32.42            0.00            0.00         32.42         0.00         0.00
    108.6       31.75            0.00            0.00         31.75         0.00         0.00
     88.0       30.95            0.00            0.00         30.95         0.00         0.00
     67.3       29.97            0.00            0.00         29.97         0.00         0.00
     46.6       28.68            0.00            0.00         28.68         0.00         0.00
     25.9       26.73            0.00            0.00         26.73         0.00         0.00
      5.2       22.07            0.00            0.00         22.07         0.00         0.00


Harvested Random Seeds after Generation of the Random Numbers:

     25087500 K 1
            0 K 2


Hub-Height Simulated Turbulence Statistical Summary:

   Type of Wind        Min (m/s)   Mean (m/s)    Max (m/s)  Sigma (m/s)       TI (%)
   ----------------    ---------   ----------    ---------  -----------       ------
   Longitudinal (u)        21.91        33.00        46.89        3.819       11.571
   Lateral (v)             -9.26         0.00         9.95        2.825        8.560
   Vertical (w)            -6.28        -0.00         6.44        1.707        5.173
   U component             21.91        33.00        46.89        3.819       11.571
   V component             -9.26         0.00         9.95        2.825        8.560
   W component             -6.28        -0.00         6.44        1.707        5.173
   Horizontal (U&V)        21.93        33.12        46.90        3.811       11.506
   Total                   22.00        33.17        46.90        3.805       11.473

                       Min Reynolds     Mean Reynolds    Max Reynolds    Correlation
   Product             Stress (m/s)^2   Stress (m/s)^2   Stress (m/s)^2  Coefficient
   ----------------    --------------   --------------   --------------  -----------
   u'w'                    -45.075             0.169            56.282         0.026
   u'v'                    -72.314            -0.831            60.069        -0.077
   v'w'                    -30.482             0.196            44.934         0.041


   Friction Velocity (Ustar)  =      0.411 m/s
   Maximum Instantaneous TKE  =     98.399 (m/s)^2
   Maximum Instantaneous CTKE =     36.175 (m/s)^2


Grid Point Variance Summary:

   Y-coord -175.00 -150.00 -125.00 -100.00  -75.00  -50.00  -25.00    0.00   25.00   50.00   75.00  100.00  125.00  150.00  175.00

   Height   Standard deviation at grid points for the u component:
   294.75    3.847   4.055   3.942   3.835   3.780   3.882   3.933   3.988   3.817   3.916   3.633   3.546   3.650   3.786   3.808
   274.07    4.016   3.956   3.780   3.591   3.686   3.853   3.782   3.851   3.915   3.903   3.727   3.695   3.652   3.667   3.619
   253.39    3.853   3.687   3.666   3.567   3.707   3.797   3.838   3.918   3.771   3.639   3.674   3.465   3.356   3.595   3.577
   232.71    3.709   3.677   3.657   3.854   3.874   3.599   3.766   3.732   3.473   3.450   3.452   3.383   3.372   3.487   3.414
   212.04    3.904   3.593   3.705   3.735   3.662   3.653   3.779   3.691   3.586   3.234   3.554   3.469   3.297   3.436   3.388
   191.36    3.642   3.471   3.547   3.721   3.617   3.691   3.474   3.528   3.491   3.340   3.468   3.671   3.556   3.596   3.581
   170.68    3.665   3.558   3.588   3.708   3.650   3.712   3.601   3.597   3.733   3.532   3.816   3.598   3.757   3.834   3.886
   150.00    3.798   3.729   3.642   4.051   3.874   3.672   3.770   3.819   3.726   3.794   3.952   3.888   3.696   3.693   3.927
   129.32    3.652   3.559   3.871   4.083   3.934   3.827   3.617   3.750   3.859   3.663   3.705   3.594   3.624   3.773   3.654
   108.64    3.610   3.467   3.765   3.777   3.696   3.844   3.637   3.701   3.604   3.510   3.466   3.577   3.877   3.656   3.466
    87.96    3.484   3.415   3.478   3.625   3.525   3.633   3.655   3.535   3.503   3.447   3.463   3.381   3.700   3.558   3.577
    67.29    3.560   3.644   3.523   3.388   3.498   3.606   3.676   3.733   3.567   3.394   3.449   3.444   3.654   3.519   3.434
    46.61    3.464   3.445   3.497   3.494   3.501   3.668   3.505   3.521   3.459   3.334   3.353   3.409   3.651   3.469   3.233
    25.93    3.525   3.292   3.277   3.331   3.263   3.539   3.239   3.533   3.256   3.445   3.459   3.401   3.509   3.595   3.358
     5.25    3.544   3.231   3.361   3.381   3.359   3.534   3.379   3.434   3.519   3.366   3.338   3.350   3.367   3.501   3.341

   Height   Standard deviation at grid points for the v component:
   294.75    2.825   2.825   2.825   2.825   2.825   2.825   2.825   2.825   2.825   2.825   2.825   2.825   2.825   2.825   2.825
   274.07    2.825   2.825   2.825   2.825   2.825   2.825   2.825   2.825   2.825   2.825   2.825   2.825   2.825   2.825   2.825
   253.39    2.825   2.825   2.825   2.825   2.825   2.825   2.825   2.825   2.825   2.825   2.825   2.825   2.825   2.825   2.825
   232.71    2.825   2.825   2.825   2.825   2.825   2.825   2.825   2.825   2.825   2.825   2.825   2.825   2.825   2.825   2.825
   212.04    2.825   2.825   2.825   2.825   2.825   2.825   2.825   2.825   2.825   2.825   2.825   2.825   2.825   2.825   2.825
   191.36    2.825   2.825   2.825   2.825   2.825   2.825   2.825   2.825   2.825   2.825   2.825   2.825   2.825   2.825   2.825
   170.68    2.825   2.825   2.825   2.825   2.825   2.825   2.825   2.825   2.825   2.825   2.825   2.825   2.825   2.825   2.825
   150.00    2.825   2.825   2.825   2.825   2.825   2.825   2.825   2.825   2.825   2.825   2.825   2.825   2.825   2.825   2.825
   129.32    2.825   2.825   2.825   2.825   2.825   2.825   2.825   2.825   2.825   2.825   2.825   2.825   2.825   2.825   2.825
   108.64    2.825   2.825   2.825   2.825   2.825   2.825   2.825   2.825   2.825   2.825   2.825   2.825   2.825   2.825   2.825
    87.96    2.825   2.825   2.825   2.825   2.825   2.825   2.825   2.825   2.825   2.825   2.825   2.825   2.825   2.825   2.825
    67.29    2.825   2.825   2.825   2.825   2.825   2.825   2.825   2.825   2.825   2.825   2.825   2.825   2.825   2.825   2.825
    46.61    2.825   2.825   2.825   2.825   2.825   2.825   2.825   2.825   2.825   2.825   2.825   2.825   2.825   2.825   2.825
    25.93    2.825   2.825   2.825   2.825   2.825   2.825   2.825   2.825   2.825   2.825   2.825   2.825   2.825   2.825   2.825
     5.25    2.825   2.825   2.825   2.825   2.825   2.825   2.825   2.825   2.825   2.825   2.825   2.825   2.825   2.825   2.825

   Height   Standard deviation at grid points for the w component:
   294.75    1.707   1.707   1.707   1.707   1.707   1.707   1.707   1.707   1.707   1.707   1.707   1.707   1.707   1.707   1.707
   274.07    1.707   1.707   1.707   1.707   1.707   1.707   1.707   1.707   1.707   1.707   1.707   1.707   1.707   1.707   1.707
   253.39    1.707   1.707   1.707   1.707   1.707   1.707   1.707   1.707   1.707   1.707   1.707   1.707   1.707   1.707   1.707
   232.71    1.707   1.707   1.707   1.707   1.707   1.707   1.707   1.707   1.707   1.707   1.707   1.707   1.707   1.707   1.707
   212.04    1.707   1.707   1.707   1.707   1.707   1.707   1.707   1.707   1.707   1.707   1.707   1.707   1.707   1.707   1.707
   191.36    1.707   1.707   1.707   1.707   1.707   1.707   1.707   1.707   1.707   1.707   1.707   1.707   1.707   1.707   1.707
   170.68    1.707   1.707   1.707   1.707   1.707   1.707   1.707   1.707   1.707   1.707   1.707   1.707   1.707   1.707   1.707
   150.00    1.707   1.707   1.707   1.707   1.707   1.707   1.707   1.707   1.707   1.707   1.707   1.707   1.707   1.707   1.707
   129.32    1.707   1.707   1.707   1.707   1.707   1.707   1.707   1.707   1.707   1.707   1.707   1.707   1.707   1.707   1.707
   108.64    1.707   1.707   1.707   1.707   1.707   1.707   1.707   1.707   1.707   1.707   1.707   1.707   1.707   1.707   1.707
    87.96    1.707   1.707   1.707   1.707   1.707   1.707   1.707   1.707   1.707   1.707   1.707   1.707   1.707   1.707   1.707
    67.29    1.707   1.707   1.707   1.707   1.707   1.707   1.707   1.707   1.707   1.707   1.707   1.707   1.707   1.707   1.707
    46.61    1.707   1.707   1.707   1.707   1.707   1.707   1.707   1.707   1.707   1.707   1.707   1.707   1.707   1.707   1.707
    25.93    1.707   1.707   1.707   1.707   1.707   1.707   1.707   1.707   1.707   1.707   1.707   1.707   1.707   1.707   1.707
     5.25    1.707   1.707   1.707   1.707   1.707   1.707   1.707   1.707   1.707   1.707   1.707   1.707   1.707   1.707   1.707

   Mean standard deviation across all grid points:
      u component:    3.615 m/s
      v component:    2.825 m/s
      w component:    1.707 m/s


U-component (X) statistics from the interpolated hub point:

   Mean =  33.0000 m/s
   TI   =  11.5714 %


Processing complete.  413.05 CPU seconds used.
