
This summary file was generated by TurbSim (from OpenFAST-v3.5.1-607-g88e18ed3) on 14-Dec-2024 at 20:03:40.


Runtime Options:

    183918  Random seed #1
    RANLUX  Type of random number generator
         F  Output binary HH turbulence parameters?
         F  Output formatted turbulence parameters?
         F  Output AeroDyn HH files?
         T  Output AeroDyn FF files?
         F  Output BLADED FF files?
         F  Output tower data?
         F  Output HAWC FF files?
         F  Output formatted FF files?
         T  Output coherent turbulence time step file?
 0 -  NONE  IEC turbulence models scaled to exact specified standard deviation


Turbine/Model Specifications:

        15  Vertical grid-point matrix dimension
        15  Horizontal grid-point matrix dimension
     0.100  Time step [seconds]
    60.000  Analysis time [seconds]
    60.000  Usable output time [seconds]
   150.000  Hub height [m]
   289.500  Grid height [m]
   350.000  Grid width [m]
     0.000  Vertical flow angle [degrees]
     0.000  Horizontal flow angle [degrees]


Meteorological Boundary Conditions:

    IECKAI  IEC Kaimal spectral model
         3  IEC standard: IEC 61400-3 Ed. 1: 2006
    11.000  Percent turbulence intensity, IEC 61400-3 Ed. 1: 2006
       NTM  IEC Normal Turbulence Model
       N/A  IEC Extreme Turbulence Model (ETM) "c" parameter [m/s]
       PL   Wind profile type
   150.000  Reference height [m]
    89.000  Reference wind speed [m/s]
       N/A  Jet height [m]
     0.120  Power law exponent
     0.030  Surface roughness length [m]


Non-IEC Meteorological Boundary Conditions:

       N/A  Site latitude [degrees]
       N/A  Gradient Richardson number
       N/A  Friction or shear velocity [m/s]
       N/A  Mixing layer depth [m]
       N/A  Mean hub u'w' Reynolds stress
       N/A  Mean hub u'v' Reynolds stress
       N/A  Mean hub v'w' Reynolds stress


Spatial Coherence Models:

       IEC  u-component coherence model
      NONE  v-component coherence model
      NONE  w-component coherence model
(   12.000, 0.353E-03)  u-component coherence parameters
                   N/A  v-component coherence parameters
                   N/A  w-component coherence parameters
       N/A  Coherence exponent


You have requested that the following file(s) be generated:

   Turbsim_Vhub_89_seednum_183918.Turbsim.bts (AeroDyn/TurbSim full-field wind file)


Turbulence Simulation Scaling Parameter Summary:

   Turbulence model used                            =  IEC Kaimal
   Turbulence characteristic                        =  User-specified
   IEC standard                                     =  IEC 61400-3 Ed. 1: 2006
   Mean wind speed at hub height                    =   89.000 m/s
   Characteristic value of standard deviation       =    9.790 m/s
   Turbulence scale                                 =   42.000 m
   u-component integral scale                       =  340.200 m
   Coherency scale                                  =  340.200 m
   Characteristic value of hub turbulence intensity =   11.000%
   Gradient Richardson number                       =    0.000

   Wind profile type                                =  Power law
   Power law exponent                               =    0.120
   Mean shear across rotor disk                     =    0.128 (m/s)/m
   Assumed rotor diameter                           =  289.500 m
   Surface roughness length                         =    0.030 m

   Nyquist frequency of turbulent wind field        =    5.000 Hz

   Number of time steps in the FFT                  =      600
   Number of time steps output                      =      600
   Number of points simulated                       =      225


Mean Flow Angles:

   Vertical   =   0.0 degrees
   Horizontal =   0.0 degrees

Mean Wind Speed Profile:

   Height    Wind Speed   Horizontal Angle  Vertical Angle  U-comp (X)   V-comp (Y)   W-comp (Z)
     (m)        (m/s)         (degrees)       (degrees)       (m/s)        (m/s)        (m/s)   
   ------    ----------   ----------------  --------------  ----------   ----------   ----------
    294.8       96.51            0.00            0.00         96.51         0.00         0.00
    274.1       95.68            0.00            0.00         95.68         0.00         0.00
    253.4       94.78            0.00            0.00         94.78         0.00         0.00
    232.7       93.82            0.00            0.00         93.82         0.00         0.00
    212.0       92.77            0.00            0.00         92.77         0.00         0.00
    191.4       91.64            0.00            0.00         91.64         0.00         0.00
    170.7       90.39            0.00            0.00         90.39         0.00         0.00
    150.0       89.00            0.00            0.00         89.00         0.00         0.00
    129.3       87.43            0.00            0.00         87.43         0.00         0.00
    108.6       85.62            0.00            0.00         85.62         0.00         0.00
     88.0       83.48            0.00            0.00         83.48         0.00         0.00
     67.3       80.84            0.00            0.00         80.84         0.00         0.00
     46.6       77.35            0.00            0.00         77.35         0.00         0.00
     25.9       72.10            0.00            0.00         72.10         0.00         0.00
      5.2       59.52            0.00            0.00         59.52         0.00         0.00


Harvested Random Seeds after Generation of the Random Numbers:

      1881463 K 1
            0 K 2


Hub-Height Simulated Turbulence Statistical Summary:

   Type of Wind        Min (m/s)   Mean (m/s)    Max (m/s)  Sigma (m/s)       TI (%)
   ----------------    ---------   ----------    ---------  -----------       ------
   Longitudinal (u)        62.44        89.00       114.13        9.599       10.786
   Lateral (v)            -19.82         0.00        22.60        7.315        8.219
   Vertical (w)           -12.83        -0.00        12.46        4.320        4.854
   U component             62.44        89.00       114.13        9.599       10.786
   V component            -19.82         0.00        22.60        7.315        8.219
   W component            -12.83        -0.00        12.46        4.320        4.854
   Horizontal (U&V)        63.15        89.30       114.13        9.591       10.740
   Total                   63.15        89.41       114.22        9.584       10.719

                       Min Reynolds     Mean Reynolds    Max Reynolds    Correlation
   Product             Stress (m/s)^2   Stress (m/s)^2   Stress (m/s)^2  Coefficient
   ----------------    --------------   --------------   --------------  -----------
   u'w'                   -215.847            -0.836           155.355        -0.020
   u'v'                   -270.040             7.857           362.598         0.112
   v'w'                   -143.907            -0.366           115.578        -0.012


   Friction Velocity (Ustar)  =      0.914 m/s
   Maximum Instantaneous TKE  =    396.872 (m/s)^2
   Maximum Instantaneous CTKE =    183.986 (m/s)^2


Grid Point Variance Summary:

   Y-coord -175.00 -150.00 -125.00 -100.00  -75.00  -50.00  -25.00    0.00   25.00   50.00   75.00  100.00  125.00  150.00  175.00

   Height   Standard deviation at grid points for the u component:
   294.75    8.370   8.790   7.475   8.896   7.813   8.854   9.697   9.359  11.321  10.385   9.230   8.393   8.906   8.425   9.038
   274.07    8.610   8.099   8.489   9.270   9.406   8.465   8.922   9.586  10.283  10.974   9.517   9.185   8.264   8.898   9.897
   253.39    8.807   8.198   7.871   8.046   8.473   9.770   8.547   8.006   8.783  10.810   9.685   8.895   9.357   8.914   9.044
   232.71    8.577   8.010   7.602   7.327   9.268  10.354  10.010   9.556   9.805   9.396   9.406   9.761   9.134   8.981   8.677
   212.04    9.538   8.293   7.867   7.356   8.491  10.173  10.409   9.669   9.920   8.832   9.256  10.573  10.391  10.838   9.080
   191.36    8.810   7.938   7.600   8.068   8.832  10.149  10.519  10.722   9.687   8.395   9.281   9.922   9.754  10.089   9.589
   170.68    7.946   7.357   7.663   7.921   7.876   9.690  10.066  10.208   8.634   9.461   9.888   9.696   9.590   9.484   8.438
   150.00    9.014   7.487   7.787   8.173   7.844   9.833   9.217   9.599   9.701  10.177  10.105   8.914   9.261   9.201   9.150
   129.32    8.211   7.933   7.806   8.402   9.199   8.959   9.248   8.202   7.470  10.315   9.180   9.943   9.525   8.733   9.543
   108.64    9.197   8.546   7.328   8.642   9.328   9.233   9.040   8.510   8.648  10.827   9.818   9.377  10.023   9.679   9.032
    87.96    9.639   8.933   9.097   8.485   8.287   8.890   8.959   9.142   8.530  10.456  10.508   9.457  10.715  10.380   9.103
    67.29    9.045   9.406   8.757   9.103   9.167   8.671   8.631   7.480   9.440   9.481   9.508  11.001  11.356  10.800   9.243
    46.61    8.741   8.462   9.082   8.559   8.002   8.186   8.595   8.583   9.849   9.385  10.116  11.641  10.848  10.184   9.801
    25.93    9.820   8.621   8.826   8.864   7.417   7.848   7.432   9.861   9.877   9.609   9.797  10.381  11.159   9.789   8.911
     5.25    8.992   8.720   8.218   8.074   7.356   7.974   8.926   9.472  10.352  10.724   9.618  10.101  10.407   8.808   9.976

   Height   Standard deviation at grid points for the v component:
   294.75    7.315   7.315   7.315   7.315   7.315   7.315   7.315   7.315   7.315   7.315   7.315   7.315   7.315   7.315   7.315
   274.07    7.315   7.315   7.315   7.315   7.315   7.315   7.315   7.315   7.315   7.315   7.315   7.315   7.315   7.315   7.315
   253.39    7.315   7.315   7.315   7.315   7.315   7.315   7.315   7.315   7.315   7.315   7.315   7.315   7.315   7.315   7.315
   232.71    7.315   7.315   7.315   7.315   7.315   7.315   7.315   7.315   7.315   7.315   7.315   7.315   7.315   7.315   7.315
   212.04    7.315   7.315   7.315   7.315   7.315   7.315   7.315   7.315   7.315   7.315   7.315   7.315   7.315   7.315   7.315
   191.36    7.315   7.315   7.315   7.315   7.315   7.315   7.315   7.315   7.315   7.315   7.315   7.315   7.315   7.315   7.315
   170.68    7.315   7.315   7.315   7.315   7.315   7.315   7.315   7.315   7.315   7.315   7.315   7.315   7.315   7.315   7.315
   150.00    7.315   7.315   7.315   7.315   7.315   7.315   7.315   7.315   7.315   7.315   7.315   7.315   7.315   7.315   7.315
   129.32    7.315   7.315   7.315   7.315   7.315   7.315   7.315   7.315   7.315   7.315   7.315   7.315   7.315   7.315   7.315
   108.64    7.315   7.315   7.315   7.315   7.315   7.315   7.315   7.315   7.315   7.315   7.315   7.315   7.315   7.315   7.315
    87.96    7.315   7.315   7.315   7.315   7.315   7.315   7.315   7.315   7.315   7.315   7.315   7.315   7.315   7.315   7.315
    67.29    7.315   7.315   7.315   7.315   7.315   7.315   7.315   7.315   7.315   7.315   7.315   7.315   7.315   7.315   7.315
    46.61    7.315   7.315   7.315   7.315   7.315   7.315   7.315   7.315   7.315   7.315   7.315   7.315   7.315   7.315   7.315
    25.93    7.315   7.315   7.315   7.315   7.315   7.315   7.315   7.315   7.315   7.315   7.315   7.315   7.315   7.315   7.315
     5.25    7.315   7.315   7.315   7.315   7.315   7.315   7.315   7.315   7.315   7.315   7.315   7.315   7.315   7.315   7.315

   Height   Standard deviation at grid points for the w component:
   294.75    4.320   4.320   4.320   4.320   4.320   4.320   4.320   4.320   4.320   4.320   4.320   4.320   4.320   4.320   4.320
   274.07    4.320   4.320   4.320   4.320   4.320   4.320   4.320   4.320   4.320   4.320   4.320   4.320   4.320   4.320   4.320
   253.39    4.320   4.320   4.320   4.320   4.320   4.320   4.320   4.320   4.320   4.320   4.320   4.320   4.320   4.320   4.320
   232.71    4.320   4.320   4.320   4.320   4.320   4.320   4.320   4.320   4.320   4.320   4.320   4.320   4.320   4.320   4.320
   212.04    4.320   4.320   4.320   4.320   4.320   4.320   4.320   4.320   4.320   4.320   4.320   4.320   4.320   4.320   4.320
   191.36    4.320   4.320   4.320   4.320   4.320   4.320   4.320   4.320   4.320   4.320   4.320   4.320   4.320   4.320   4.320
   170.68    4.320   4.320   4.320   4.320   4.320   4.320   4.320   4.320   4.320   4.320   4.320   4.320   4.320   4.320   4.320
   150.00    4.320   4.320   4.320   4.320   4.320   4.320   4.320   4.320   4.320   4.320   4.320   4.320   4.320   4.320   4.320
   129.32    4.320   4.320   4.320   4.320   4.320   4.320   4.320   4.320   4.320   4.320   4.320   4.320   4.320   4.320   4.320
   108.64    4.320   4.320   4.320   4.320   4.320   4.320   4.320   4.320   4.320   4.320   4.320   4.320   4.320   4.320   4.320
    87.96    4.320   4.320   4.320   4.320   4.320   4.320   4.320   4.320   4.320   4.320   4.320   4.320   4.320   4.320   4.320
    67.29    4.320   4.320   4.320   4.320   4.320   4.320   4.320   4.320   4.320   4.320   4.320   4.320   4.320   4.320   4.320
    46.61    4.320   4.320   4.320   4.320   4.320   4.320   4.320   4.320   4.320   4.320   4.320   4.320   4.320   4.320   4.320
    25.93    4.320   4.320   4.320   4.320   4.320   4.320   4.320   4.320   4.320   4.320   4.320   4.320   4.320   4.320   4.320
     5.25    4.320   4.320   4.320   4.320   4.320   4.320   4.320   4.320   4.320   4.320   4.320   4.320   4.320   4.320   4.320

   Mean standard deviation across all grid points:
      u component:    9.150 m/s
      v component:    7.315 m/s
      w component:    4.320 m/s


U-component (X) statistics from the interpolated hub point:

   Mean =  89.0000 m/s
   TI   =  10.7857 %


Processing complete.  9.8982 CPU seconds used.
