
This summary file was generated by TurbSim (from OpenFAST-v3.5.1-607-g88e18ed3) on 13-Dec-2024 at 13:49:44.


Runtime Options:

    929617  Random seed #1
    RANLUX  Type of random number generator
         F  Output binary HH turbulence parameters?
         F  Output formatted turbulence parameters?
         F  Output AeroDyn HH files?
         T  Output AeroDyn FF files?
         F  Output BLADED FF files?
         F  Output tower data?
         F  Output HAWC FF files?
         F  Output formatted FF files?
         T  Output coherent turbulence time step file?
 0 -  NONE  IEC turbulence models scaled to exact specified standard deviation


Turbine/Model Specifications:

        15  Vertical grid-point matrix dimension
        15  Horizontal grid-point matrix dimension
     0.100  Time step [seconds]
   800.000  Analysis time [seconds]
   800.000  Usable output time [seconds]
   150.000  Hub height [m]
   289.500  Grid height [m]
   350.000  Grid width [m]
     0.000  Vertical flow angle [degrees]
     0.000  Horizontal flow angle [degrees]


Meteorological Boundary Conditions:

    IECKAI  IEC Kaimal spectral model
         3  IEC standard: IEC 61400-3 Ed. 1: 2006
    11.000  Percent turbulence intensity, IEC 61400-3 Ed. 1: 2006
       NTM  IEC Normal Turbulence Model
       N/A  IEC Extreme Turbulence Model (ETM) "c" parameter [m/s]
       PL   Wind profile type
   150.000  Reference height [m]
    41.000  Reference wind speed [m/s]
       N/A  Jet height [m]
     0.120  Power law exponent
     0.030  Surface roughness length [m]


Non-IEC Meteorological Boundary Conditions:

       N/A  Site latitude [degrees]
       N/A  Gradient Richardson number
       N/A  Friction or shear velocity [m/s]
       N/A  Mixing layer depth [m]
       N/A  Mean hub u'w' Reynolds stress
       N/A  Mean hub u'v' Reynolds stress
       N/A  Mean hub v'w' Reynolds stress


Spatial Coherence Models:

       IEC  u-component coherence model
      NONE  v-component coherence model
      NONE  w-component coherence model
(   12.000, 0.353E-03)  u-component coherence parameters
                   N/A  v-component coherence parameters
                   N/A  w-component coherence parameters
       N/A  Coherence exponent


You have requested that the following file(s) be generated:

   Turbsim_Vhub_41_seednum_929617.Turbsim.bts (AeroDyn/TurbSim full-field wind file)


Turbulence Simulation Scaling Parameter Summary:

   Turbulence model used                            =  IEC Kaimal
   Turbulence characteristic                        =  User-specified
   IEC standard                                     =  IEC 61400-3 Ed. 1: 2006
   Mean wind speed at hub height                    =   41.000 m/s
   Characteristic value of standard deviation       =    4.510 m/s
   Turbulence scale                                 =   42.000 m
   u-component integral scale                       =  340.200 m
   Coherency scale                                  =  340.200 m
   Characteristic value of hub turbulence intensity =   11.000%
   Gradient Richardson number                       =    0.000

   Wind profile type                                =  Power law
   Power law exponent                               =    0.120
   Mean shear across rotor disk                     =    0.059 (m/s)/m
   Assumed rotor diameter                           =  289.500 m
   Surface roughness length                         =    0.030 m

   Nyquist frequency of turbulent wind field        =    5.000 Hz

   Number of time steps in the FFT                  =     8000
   Number of time steps output                      =     8000
   Number of points simulated                       =      225


Mean Flow Angles:

   Vertical   =   0.0 degrees
   Horizontal =   0.0 degrees

Mean Wind Speed Profile:

   Height    Wind Speed   Horizontal Angle  Vertical Angle  U-comp (X)   V-comp (Y)   W-comp (Z)
     (m)        (m/s)         (degrees)       (degrees)       (m/s)        (m/s)        (m/s)   
   ------    ----------   ----------------  --------------  ----------   ----------   ----------
    294.8       44.46            0.00            0.00         44.46         0.00         0.00
    274.1       44.08            0.00            0.00         44.08         0.00         0.00
    253.4       43.66            0.00            0.00         43.66         0.00         0.00
    232.7       43.22            0.00            0.00         43.22         0.00         0.00
    212.0       42.74            0.00            0.00         42.74         0.00         0.00
    191.4       42.22            0.00            0.00         42.22         0.00         0.00
    170.7       41.64            0.00            0.00         41.64         0.00         0.00
    150.0       41.00            0.00            0.00         41.00         0.00         0.00
    129.3       40.28            0.00            0.00         40.28         0.00         0.00
    108.6       39.44            0.00            0.00         39.44         0.00         0.00
     88.0       38.46            0.00            0.00         38.46         0.00         0.00
     67.3       37.24            0.00            0.00         37.24         0.00         0.00
     46.6       35.63            0.00            0.00         35.63         0.00         0.00
     25.9       33.21            0.00            0.00         33.21         0.00         0.00
      5.2       27.42            0.00            0.00         27.42         0.00         0.00


Harvested Random Seeds after Generation of the Random Numbers:

     25087500 K 1
            0 K 2


Hub-Height Simulated Turbulence Statistical Summary:

   Type of Wind        Min (m/s)   Mean (m/s)    Max (m/s)  Sigma (m/s)       TI (%)
   ----------------    ---------   ----------    ---------  -----------       ------
   Longitudinal (u)        26.93        41.00        58.21        4.675       11.402
   Lateral (v)            -11.43        -0.00        12.41        3.500        8.536
   Vertical (w)            -7.74         0.00         7.99        2.101        5.124
   U component             26.93        41.00        58.21        4.675       11.402
   V component            -11.43        -0.00        12.41        3.500        8.536
   W component             -7.74         0.00         7.99        2.101        5.124
   Horizontal (U&V)        27.32        41.15        58.23        4.664       11.335
   Total                   27.51        41.20        58.23        4.658       11.303

                       Min Reynolds     Mean Reynolds    Max Reynolds    Correlation
   Product             Stress (m/s)^2   Stress (m/s)^2   Stress (m/s)^2  Coefficient
   ----------------    --------------   --------------   --------------  -----------
   u'w'                    -68.888             0.191            87.273         0.019
   u'v'                   -123.351            -1.018            93.686        -0.062
   v'w'                    -45.948             0.248            67.150         0.034


   Friction Velocity (Ustar)  =      0.437 m/s
   Maximum Instantaneous TKE  =    151.088 (m/s)^2
   Maximum Instantaneous CTKE =     61.707 (m/s)^2


Grid Point Variance Summary:

   Y-coord -175.00 -150.00 -125.00 -100.00  -75.00  -50.00  -25.00    0.00   25.00   50.00   75.00  100.00  125.00  150.00  175.00

   Height   Standard deviation at grid points for the u component:
   294.75    4.718   4.933   4.801   4.699   4.638   4.757   4.800   4.868   4.677   4.790   4.474   4.405   4.537   4.655   4.667
   274.07    4.923   4.825   4.632   4.455   4.540   4.742   4.644   4.710   4.781   4.759   4.579   4.560   4.522   4.541   4.492
   253.39    4.752   4.536   4.515   4.421   4.576   4.655   4.705   4.813   4.640   4.478   4.520   4.303   4.172   4.429   4.440
   232.71    4.620   4.570   4.538   4.731   4.764   4.438   4.604   4.575   4.300   4.261   4.309   4.216   4.181   4.304   4.223
   212.04    4.836   4.469   4.563   4.603   4.519   4.493   4.620   4.518   4.426   4.060   4.406   4.303   4.111   4.257   4.209
   191.36    4.542   4.349   4.425   4.589   4.467   4.536   4.282   4.335   4.299   4.159   4.278   4.507   4.410   4.429   4.426
   170.68    4.548   4.441   4.484   4.585   4.519   4.553   4.432   4.422   4.546   4.352   4.661   4.418   4.621   4.715   4.772
   150.00    4.691   4.629   4.540   4.975   4.765   4.499   4.622   4.675   4.562   4.649   4.834   4.743   4.544   4.571   4.826
   129.32    4.506   4.429   4.766   5.015   4.843   4.721   4.458   4.578   4.704   4.514   4.551   4.413   4.461   4.628   4.510
   108.64    4.477   4.318   4.654   4.648   4.586   4.746   4.509   4.541   4.422   4.324   4.292   4.424   4.779   4.524   4.304
    87.96    4.346   4.247   4.335   4.497   4.374   4.527   4.562   4.391   4.344   4.271   4.285   4.212   4.570   4.417   4.431
    67.29    4.411   4.489   4.361   4.228   4.371   4.507   4.593   4.619   4.423   4.234   4.289   4.264   4.496   4.353   4.266
    46.61    4.318   4.285   4.348   4.354   4.363   4.577   4.391   4.383   4.293   4.145   4.175   4.228   4.504   4.298   4.066
    25.93    4.392   4.112   4.129   4.159   4.081   4.410   4.111   4.413   4.074   4.270   4.300   4.236   4.355   4.438   4.191
     5.25    4.406   4.062   4.211   4.228   4.197   4.407   4.251   4.321   4.382   4.227   4.167   4.183   4.184   4.347   4.172

   Height   Standard deviation at grid points for the v component:
   294.75    3.500   3.500   3.500   3.500   3.500   3.500   3.500   3.500   3.500   3.500   3.500   3.500   3.500   3.500   3.500
   274.07    3.500   3.500   3.500   3.500   3.500   3.500   3.500   3.500   3.500   3.500   3.500   3.500   3.500   3.500   3.500
   253.39    3.500   3.500   3.500   3.500   3.500   3.500   3.500   3.500   3.500   3.500   3.500   3.500   3.500   3.500   3.500
   232.71    3.500   3.500   3.500   3.500   3.500   3.500   3.500   3.500   3.500   3.500   3.500   3.500   3.500   3.500   3.500
   212.04    3.500   3.500   3.500   3.500   3.500   3.500   3.500   3.500   3.500   3.500   3.500   3.500   3.500   3.500   3.500
   191.36    3.500   3.500   3.500   3.500   3.500   3.500   3.500   3.500   3.500   3.500   3.500   3.500   3.500   3.500   3.500
   170.68    3.500   3.500   3.500   3.500   3.500   3.500   3.500   3.500   3.500   3.500   3.500   3.500   3.500   3.500   3.500
   150.00    3.500   3.500   3.500   3.500   3.500   3.500   3.500   3.500   3.500   3.500   3.500   3.500   3.500   3.500   3.500
   129.32    3.500   3.500   3.500   3.500   3.500   3.500   3.500   3.500   3.500   3.500   3.500   3.500   3.500   3.500   3.500
   108.64    3.500   3.500   3.500   3.500   3.500   3.500   3.500   3.500   3.500   3.500   3.500   3.500   3.500   3.500   3.500
    87.96    3.500   3.500   3.500   3.500   3.500   3.500   3.500   3.500   3.500   3.500   3.500   3.500   3.500   3.500   3.500
    67.29    3.500   3.500   3.500   3.500   3.500   3.500   3.500   3.500   3.500   3.500   3.500   3.500   3.500   3.500   3.500
    46.61    3.500   3.500   3.500   3.500   3.500   3.500   3.500   3.500   3.500   3.500   3.500   3.500   3.500   3.500   3.500
    25.93    3.500   3.500   3.500   3.500   3.500   3.500   3.500   3.500   3.500   3.500   3.500   3.500   3.500   3.500   3.500
     5.25    3.500   3.500   3.500   3.500   3.500   3.500   3.500   3.500   3.500   3.500   3.500   3.500   3.500   3.500   3.500

   Height   Standard deviation at grid points for the w component:
   294.75    2.101   2.101   2.101   2.101   2.101   2.101   2.101   2.101   2.101   2.101   2.101   2.101   2.101   2.101   2.101
   274.07    2.101   2.101   2.101   2.101   2.101   2.101   2.101   2.101   2.101   2.101   2.101   2.101   2.101   2.101   2.101
   253.39    2.101   2.101   2.101   2.101   2.101   2.101   2.101   2.101   2.101   2.101   2.101   2.101   2.101   2.101   2.101
   232.71    2.101   2.101   2.101   2.101   2.101   2.101   2.101   2.101   2.101   2.101   2.101   2.101   2.101   2.101   2.101
   212.04    2.101   2.101   2.101   2.101   2.101   2.101   2.101   2.101   2.101   2.101   2.101   2.101   2.101   2.101   2.101
   191.36    2.101   2.101   2.101   2.101   2.101   2.101   2.101   2.101   2.101   2.101   2.101   2.101   2.101   2.101   2.101
   170.68    2.101   2.101   2.101   2.101   2.101   2.101   2.101   2.101   2.101   2.101   2.101   2.101   2.101   2.101   2.101
   150.00    2.101   2.101   2.101   2.101   2.101   2.101   2.101   2.101   2.101   2.101   2.101   2.101   2.101   2.101   2.101
   129.32    2.101   2.101   2.101   2.101   2.101   2.101   2.101   2.101   2.101   2.101   2.101   2.101   2.101   2.101   2.101
   108.64    2.101   2.101   2.101   2.101   2.101   2.101   2.101   2.101   2.101   2.101   2.101   2.101   2.101   2.101   2.101
    87.96    2.101   2.101   2.101   2.101   2.101   2.101   2.101   2.101   2.101   2.101   2.101   2.101   2.101   2.101   2.101
    67.29    2.101   2.101   2.101   2.101   2.101   2.101   2.101   2.101   2.101   2.101   2.101   2.101   2.101   2.101   2.101
    46.61    2.101   2.101   2.101   2.101   2.101   2.101   2.101   2.101   2.101   2.101   2.101   2.101   2.101   2.101   2.101
    25.93    2.101   2.101   2.101   2.101   2.101   2.101   2.101   2.101   2.101   2.101   2.101   2.101   2.101   2.101   2.101
     5.25    2.101   2.101   2.101   2.101   2.101   2.101   2.101   2.101   2.101   2.101   2.101   2.101   2.101   2.101   2.101

   Mean standard deviation across all grid points:
      u component:    4.470 m/s
      v component:    3.500 m/s
      w component:    2.101 m/s


U-component (X) statistics from the interpolated hub point:

   Mean =  41.0000 m/s
   TI   =  11.4023 %


Processing complete.  450.09 CPU seconds used.
