
This summary file was generated by TurbSim (from OpenFAST-v3.5.1-607-g88e18ed3) on 14-Dec-2024 at 20:02:20.


Runtime Options:

    316375  Random seed #1
    RANLUX  Type of random number generator
         F  Output binary HH turbulence parameters?
         F  Output formatted turbulence parameters?
         F  Output AeroDyn HH files?
         T  Output AeroDyn FF files?
         F  Output BLADED FF files?
         F  Output tower data?
         F  Output HAWC FF files?
         F  Output formatted FF files?
         T  Output coherent turbulence time step file?
 0 -  NONE  IEC turbulence models scaled to exact specified standard deviation


Turbine/Model Specifications:

        15  Vertical grid-point matrix dimension
        15  Horizontal grid-point matrix dimension
     0.100  Time step [seconds]
    60.000  Analysis time [seconds]
    60.000  Usable output time [seconds]
   150.000  Hub height [m]
   289.500  Grid height [m]
   350.000  Grid width [m]
     0.000  Vertical flow angle [degrees]
     0.000  Horizontal flow angle [degrees]


Meteorological Boundary Conditions:

    IECKAI  IEC Kaimal spectral model
         3  IEC standard: IEC 61400-3 Ed. 1: 2006
    11.000  Percent turbulence intensity, IEC 61400-3 Ed. 1: 2006
       NTM  IEC Normal Turbulence Model
       N/A  IEC Extreme Turbulence Model (ETM) "c" parameter [m/s]
       PL   Wind profile type
   150.000  Reference height [m]
    73.000  Reference wind speed [m/s]
       N/A  Jet height [m]
     0.120  Power law exponent
     0.030  Surface roughness length [m]


Non-IEC Meteorological Boundary Conditions:

       N/A  Site latitude [degrees]
       N/A  Gradient Richardson number
       N/A  Friction or shear velocity [m/s]
       N/A  Mixing layer depth [m]
       N/A  Mean hub u'w' Reynolds stress
       N/A  Mean hub u'v' Reynolds stress
       N/A  Mean hub v'w' Reynolds stress


Spatial Coherence Models:

       IEC  u-component coherence model
      NONE  v-component coherence model
      NONE  w-component coherence model
(   12.000, 0.353E-03)  u-component coherence parameters
                   N/A  v-component coherence parameters
                   N/A  w-component coherence parameters
       N/A  Coherence exponent


You have requested that the following file(s) be generated:

   Turbsim_Vhub_73_seednum_316375.Turbsim.bts (AeroDyn/TurbSim full-field wind file)


Turbulence Simulation Scaling Parameter Summary:

   Turbulence model used                            =  IEC Kaimal
   Turbulence characteristic                        =  User-specified
   IEC standard                                     =  IEC 61400-3 Ed. 1: 2006
   Mean wind speed at hub height                    =   73.000 m/s
   Characteristic value of standard deviation       =    8.030 m/s
   Turbulence scale                                 =   42.000 m
   u-component integral scale                       =  340.200 m
   Coherency scale                                  =  340.200 m
   Characteristic value of hub turbulence intensity =   11.000%
   Gradient Richardson number                       =    0.000

   Wind profile type                                =  Power law
   Power law exponent                               =    0.120
   Mean shear across rotor disk                     =    0.105 (m/s)/m
   Assumed rotor diameter                           =  289.500 m
   Surface roughness length                         =    0.030 m

   Nyquist frequency of turbulent wind field        =    5.000 Hz

   Number of time steps in the FFT                  =      600
   Number of time steps output                      =      600
   Number of points simulated                       =      225


Mean Flow Angles:

   Vertical   =   0.0 degrees
   Horizontal =   0.0 degrees

Mean Wind Speed Profile:

   Height    Wind Speed   Horizontal Angle  Vertical Angle  U-comp (X)   V-comp (Y)   W-comp (Z)
     (m)        (m/s)         (degrees)       (degrees)       (m/s)        (m/s)        (m/s)   
   ------    ----------   ----------------  --------------  ----------   ----------   ----------
    294.8       79.16            0.00            0.00         79.16         0.00         0.00
    274.1       78.48            0.00            0.00         78.48         0.00         0.00
    253.4       77.74            0.00            0.00         77.74         0.00         0.00
    232.7       76.95            0.00            0.00         76.95         0.00         0.00
    212.0       76.10            0.00            0.00         76.10         0.00         0.00
    191.4       75.16            0.00            0.00         75.16         0.00         0.00
    170.7       74.14            0.00            0.00         74.14         0.00         0.00
    150.0       73.00            0.00            0.00         73.00         0.00         0.00
    129.3       71.71            0.00            0.00         71.71         0.00         0.00
    108.6       70.23            0.00            0.00         70.23         0.00         0.00
     88.0       68.47            0.00            0.00         68.47         0.00         0.00
     67.3       66.30            0.00            0.00         66.30         0.00         0.00
     46.6       63.45            0.00            0.00         63.45         0.00         0.00
     25.9       59.14            0.00            0.00         59.14         0.00         0.00
      5.2       48.82            0.00            0.00         48.82         0.00         0.00


Harvested Random Seeds after Generation of the Random Numbers:

      1881463 K 1
            0 K 2


Hub-Height Simulated Turbulence Statistical Summary:

   Type of Wind        Min (m/s)   Mean (m/s)    Max (m/s)  Sigma (m/s)       TI (%)
   ----------------    ---------   ----------    ---------  -----------       ------
   Longitudinal (u)        52.56        73.00        91.09        6.468        8.861
   Lateral (v)            -17.77         0.00        16.10        6.006        8.228
   Vertical (w)           -11.59        -0.00        10.86        3.592        4.921
   U component             52.56        73.00        91.09        6.468        8.861
   V component            -17.77         0.00        16.10        6.006        8.228
   W component            -11.59        -0.00        10.86        3.592        4.921
   Horizontal (U&V)        52.56        73.24        91.09        6.494        8.866
   Total                   52.59        73.33        91.09        6.488        8.847

                       Min Reynolds     Mean Reynolds    Max Reynolds    Correlation
   Product             Stress (m/s)^2   Stress (m/s)^2   Stress (m/s)^2  Coefficient
   ----------------    --------------   --------------   --------------  -----------
   u'w'                    -98.203             0.193           115.603         0.008
   u'v'                   -157.302             1.869           172.921         0.048
   v'w'                    -62.192             2.740            89.832         0.127


   Friction Velocity (Ustar)  =      0.440 m/s
   Maximum Instantaneous TKE  =    210.476 (m/s)^2
   Maximum Instantaneous CTKE =     96.492 (m/s)^2


Grid Point Variance Summary:

   Y-coord -175.00 -150.00 -125.00 -100.00  -75.00  -50.00  -25.00    0.00   25.00   50.00   75.00  100.00  125.00  150.00  175.00

   Height   Standard deviation at grid points for the u component:
   294.75    8.229   7.137   6.457   6.937   6.329   5.392   5.825   5.302   5.677   6.230   7.377   7.751   8.131   8.971  10.291
   274.07    8.012   6.851   6.540   6.829   6.056   5.717   6.146   6.075   7.111   4.983   6.245   7.159   7.884   9.836  10.487
   253.39    7.585   6.393   6.482   6.331   6.024   5.780   6.192   5.872   7.181   6.791   6.045   7.786   8.721   9.508  10.261
   232.71    7.904   7.793   6.678   5.917   6.311   5.602   5.802   6.116   6.622   7.638   7.785   7.565   8.327   8.844  10.003
   212.04    7.223   7.383   6.822   6.764   6.327   6.139   5.811   6.940   7.586   8.342   9.262   8.529   7.538   8.375   8.612
   191.36    6.396   7.250   6.545   6.550   6.307   5.800   5.865   6.988   7.021   7.863   8.717   8.183   8.608   8.371   8.546
   170.68    6.921   6.839   6.419   5.573   5.706   6.217   6.229   6.440   6.778   7.643   8.259   7.975   8.229   8.403   7.282
   150.00    6.385   6.186   6.227   5.716   6.188   6.248   5.886   6.468   7.741   7.943   8.283   7.478   7.643   7.522   8.054
   129.32    6.656   6.144   6.071   5.806   6.118   6.241   5.147   6.307   7.798   6.792   7.107   7.294   8.022   7.672   7.053
   108.64    6.086   6.220   5.699   5.990   6.915   5.684   6.483   6.136   6.794   7.026   6.141   6.591   7.542   7.937   8.273
    87.96    5.666   6.124   6.549   7.105   6.889   6.605   6.576   7.542   6.683   6.307   5.311   5.127   7.007   7.757   6.748
    67.29    5.887   6.139   6.922   6.647   7.583   7.700   6.065   7.576   8.112   6.119   5.456   5.745   6.500   6.852   7.325
    46.61    6.697   6.534   6.394   5.980   7.696   7.528   7.577   7.700   7.608   6.832   6.121   5.517   5.854   6.841   7.227
    25.93    7.385   6.576   6.669   6.592   7.862   7.757   7.779   7.400   7.421   6.686   6.320   5.557   4.800   6.076   5.879
     5.25    7.303   6.364   6.684   7.015   7.374   7.636   8.742   6.208   6.600   6.518   7.141   6.777   6.235   5.526   6.798

   Height   Standard deviation at grid points for the v component:
   294.75    6.006   6.006   6.006   6.006   6.006   6.006   6.006   6.006   6.006   6.006   6.006   6.006   6.006   6.006   6.006
   274.07    6.006   6.006   6.006   6.006   6.006   6.006   6.006   6.006   6.006   6.006   6.006   6.006   6.006   6.006   6.006
   253.39    6.006   6.006   6.006   6.006   6.006   6.006   6.006   6.006   6.006   6.006   6.006   6.006   6.006   6.006   6.006
   232.71    6.006   6.006   6.006   6.006   6.006   6.006   6.006   6.006   6.006   6.006   6.006   6.006   6.006   6.006   6.006
   212.04    6.006   6.006   6.006   6.006   6.006   6.006   6.006   6.006   6.006   6.006   6.006   6.006   6.006   6.006   6.006
   191.36    6.006   6.006   6.006   6.006   6.006   6.006   6.006   6.006   6.006   6.006   6.006   6.006   6.006   6.006   6.006
   170.68    6.006   6.006   6.006   6.006   6.006   6.006   6.006   6.006   6.006   6.006   6.006   6.006   6.006   6.006   6.006
   150.00    6.006   6.006   6.006   6.006   6.006   6.006   6.006   6.006   6.006   6.006   6.006   6.006   6.006   6.006   6.006
   129.32    6.006   6.006   6.006   6.006   6.006   6.006   6.006   6.006   6.006   6.006   6.006   6.006   6.006   6.006   6.006
   108.64    6.006   6.006   6.006   6.006   6.006   6.006   6.006   6.006   6.006   6.006   6.006   6.006   6.006   6.006   6.006
    87.96    6.006   6.006   6.006   6.006   6.006   6.006   6.006   6.006   6.006   6.006   6.006   6.006   6.006   6.006   6.006
    67.29    6.006   6.006   6.006   6.006   6.006   6.006   6.006   6.006   6.006   6.006   6.006   6.006   6.006   6.006   6.006
    46.61    6.006   6.006   6.006   6.006   6.006   6.006   6.006   6.006   6.006   6.006   6.006   6.006   6.006   6.006   6.006
    25.93    6.006   6.006   6.006   6.006   6.006   6.006   6.006   6.006   6.006   6.006   6.006   6.006   6.006   6.006   6.006
     5.25    6.006   6.006   6.006   6.006   6.006   6.006   6.006   6.006   6.006   6.006   6.006   6.006   6.006   6.006   6.006

   Height   Standard deviation at grid points for the w component:
   294.75    3.592   3.592   3.592   3.592   3.592   3.592   3.592   3.592   3.592   3.592   3.592   3.592   3.592   3.592   3.592
   274.07    3.592   3.592   3.592   3.592   3.592   3.592   3.592   3.592   3.592   3.592   3.592   3.592   3.592   3.592   3.592
   253.39    3.592   3.592   3.592   3.592   3.592   3.592   3.592   3.592   3.592   3.592   3.592   3.592   3.592   3.592   3.592
   232.71    3.592   3.592   3.592   3.592   3.592   3.592   3.592   3.592   3.592   3.592   3.592   3.592   3.592   3.592   3.592
   212.04    3.592   3.592   3.592   3.592   3.592   3.592   3.592   3.592   3.592   3.592   3.592   3.592   3.592   3.592   3.592
   191.36    3.592   3.592   3.592   3.592   3.592   3.592   3.592   3.592   3.592   3.592   3.592   3.592   3.592   3.592   3.592
   170.68    3.592   3.592   3.592   3.592   3.592   3.592   3.592   3.592   3.592   3.592   3.592   3.592   3.592   3.592   3.592
   150.00    3.592   3.592   3.592   3.592   3.592   3.592   3.592   3.592   3.592   3.592   3.592   3.592   3.592   3.592   3.592
   129.32    3.592   3.592   3.592   3.592   3.592   3.592   3.592   3.592   3.592   3.592   3.592   3.592   3.592   3.592   3.592
   108.64    3.592   3.592   3.592   3.592   3.592   3.592   3.592   3.592   3.592   3.592   3.592   3.592   3.592   3.592   3.592
    87.96    3.592   3.592   3.592   3.592   3.592   3.592   3.592   3.592   3.592   3.592   3.592   3.592   3.592   3.592   3.592
    67.29    3.592   3.592   3.592   3.592   3.592   3.592   3.592   3.592   3.592   3.592   3.592   3.592   3.592   3.592   3.592
    46.61    3.592   3.592   3.592   3.592   3.592   3.592   3.592   3.592   3.592   3.592   3.592   3.592   3.592   3.592   3.592
    25.93    3.592   3.592   3.592   3.592   3.592   3.592   3.592   3.592   3.592   3.592   3.592   3.592   3.592   3.592   3.592
     5.25    3.592   3.592   3.592   3.592   3.592   3.592   3.592   3.592   3.592   3.592   3.592   3.592   3.592   3.592   3.592

   Mean standard deviation across all grid points:
      u component:    6.940 m/s
      v component:    6.006 m/s
      w component:    3.592 m/s


U-component (X) statistics from the interpolated hub point:

   Mean =  73.0000 m/s
   TI   =   8.8609 %


Processing complete.  11.507 CPU seconds used.
