
This summary file was generated by TurbSim (from OpenFAST-v3.5.1-607-g88e18ed3) on 14-Dec-2024 at 20:03:55.


Runtime Options:

    872176  Random seed #1
    RANLUX  Type of random number generator
         F  Output binary HH turbulence parameters?
         F  Output formatted turbulence parameters?
         F  Output AeroDyn HH files?
         T  Output AeroDyn FF files?
         F  Output BLADED FF files?
         F  Output tower data?
         F  Output HAWC FF files?
         F  Output formatted FF files?
         T  Output coherent turbulence time step file?
 0 -  NONE  IEC turbulence models scaled to exact specified standard deviation


Turbine/Model Specifications:

        15  Vertical grid-point matrix dimension
        15  Horizontal grid-point matrix dimension
     0.100  Time step [seconds]
    60.000  Analysis time [seconds]
    60.000  Usable output time [seconds]
   150.000  Hub height [m]
   289.500  Grid height [m]
   350.000  Grid width [m]
     0.000  Vertical flow angle [degrees]
     0.000  Horizontal flow angle [degrees]


Meteorological Boundary Conditions:

    IECKAI  IEC Kaimal spectral model
         3  IEC standard: IEC 61400-3 Ed. 1: 2006
    11.000  Percent turbulence intensity, IEC 61400-3 Ed. 1: 2006
       NTM  IEC Normal Turbulence Model
       N/A  IEC Extreme Turbulence Model (ETM) "c" parameter [m/s]
       PL   Wind profile type
   150.000  Reference height [m]
    97.000  Reference wind speed [m/s]
       N/A  Jet height [m]
     0.120  Power law exponent
     0.030  Surface roughness length [m]


Non-IEC Meteorological Boundary Conditions:

       N/A  Site latitude [degrees]
       N/A  Gradient Richardson number
       N/A  Friction or shear velocity [m/s]
       N/A  Mixing layer depth [m]
       N/A  Mean hub u'w' Reynolds stress
       N/A  Mean hub u'v' Reynolds stress
       N/A  Mean hub v'w' Reynolds stress


Spatial Coherence Models:

       IEC  u-component coherence model
      NONE  v-component coherence model
      NONE  w-component coherence model
(   12.000, 0.353E-03)  u-component coherence parameters
                   N/A  v-component coherence parameters
                   N/A  w-component coherence parameters
       N/A  Coherence exponent


You have requested that the following file(s) be generated:

   Turbsim_Vhub_97_seednum_872176.Turbsim.bts (AeroDyn/TurbSim full-field wind file)


Turbulence Simulation Scaling Parameter Summary:

   Turbulence model used                            =  IEC Kaimal
   Turbulence characteristic                        =  User-specified
   IEC standard                                     =  IEC 61400-3 Ed. 1: 2006
   Mean wind speed at hub height                    =   97.000 m/s
   Characteristic value of standard deviation       =   10.670 m/s
   Turbulence scale                                 =   42.000 m
   u-component integral scale                       =  340.200 m
   Coherency scale                                  =  340.200 m
   Characteristic value of hub turbulence intensity =   11.000%
   Gradient Richardson number                       =    0.000

   Wind profile type                                =  Power law
   Power law exponent                               =    0.120
   Mean shear across rotor disk                     =    0.139 (m/s)/m
   Assumed rotor diameter                           =  289.500 m
   Surface roughness length                         =    0.030 m

   Nyquist frequency of turbulent wind field        =    5.000 Hz

   Number of time steps in the FFT                  =      600
   Number of time steps output                      =      600
   Number of points simulated                       =      225


Mean Flow Angles:

   Vertical   =   0.0 degrees
   Horizontal =   0.0 degrees

Mean Wind Speed Profile:

   Height    Wind Speed   Horizontal Angle  Vertical Angle  U-comp (X)   V-comp (Y)   W-comp (Z)
     (m)        (m/s)         (degrees)       (degrees)       (m/s)        (m/s)        (m/s)   
   ------    ----------   ----------------  --------------  ----------   ----------   ----------
    294.8      105.19            0.00            0.00        105.19         0.00         0.00
    274.1      104.28            0.00            0.00        104.28         0.00         0.00
    253.4      103.30            0.00            0.00        103.30         0.00         0.00
    232.7      102.25            0.00            0.00        102.25         0.00         0.00
    212.0      101.11            0.00            0.00        101.11         0.00         0.00
    191.4       99.88            0.00            0.00         99.88         0.00         0.00
    170.7       98.51            0.00            0.00         98.51         0.00         0.00
    150.0       97.00            0.00            0.00         97.00         0.00         0.00
    129.3       95.29            0.00            0.00         95.29         0.00         0.00
    108.6       93.32            0.00            0.00         93.32         0.00         0.00
     88.0       90.98            0.00            0.00         90.98         0.00         0.00
     67.3       88.10            0.00            0.00         88.10         0.00         0.00
     46.6       84.31            0.00            0.00         84.31         0.00         0.00
     25.9       78.58            0.00            0.00         78.58         0.00         0.00
      5.2       64.87            0.00            0.00         64.87         0.00         0.00


Harvested Random Seeds after Generation of the Random Numbers:

      1881463 K 1
            0 K 2


Hub-Height Simulated Turbulence Statistical Summary:

   Type of Wind        Min (m/s)   Mean (m/s)    Max (m/s)  Sigma (m/s)       TI (%)
   ----------------    ---------   ----------    ---------  -----------       ------
   Longitudinal (u)        73.79        97.00       125.31       10.116       10.429
   Lateral (v)            -23.13         0.00        23.77        7.965        8.211
   Vertical (w)           -13.76        -0.00        13.47        4.677        4.822
   U component             73.79        97.00       125.31       10.116       10.429
   V component            -23.13         0.00        23.77        7.965        8.211
   W component            -13.76        -0.00        13.47        4.677        4.822
   Horizontal (U&V)        74.96        97.33       125.39       10.062       10.338
   Total                   74.97        97.44       125.39       10.056       10.320

                       Min Reynolds     Mean Reynolds    Max Reynolds    Correlation
   Product             Stress (m/s)^2   Stress (m/s)^2   Stress (m/s)^2  Coefficient
   ----------------    --------------   --------------   --------------  -----------
   u'w'                   -178.713             1.332           159.662         0.028
   u'v'                   -311.533             2.798           420.088         0.035
   v'w'                   -167.042             3.590           181.846         0.096


   Friction Velocity (Ustar)  =      1.154 m/s
   Maximum Instantaneous TKE  =    434.032 (m/s)^2
   Maximum Instantaneous CTKE =    210.953 (m/s)^2


Grid Point Variance Summary:

   Y-coord -175.00 -150.00 -125.00 -100.00  -75.00  -50.00  -25.00    0.00   25.00   50.00   75.00  100.00  125.00  150.00  175.00

   Height   Standard deviation at grid points for the u component:
   294.75    8.276   7.458   9.567  10.637  11.474  10.080   8.181   9.922   9.181   9.291   8.882   9.196   9.473   9.622   9.849
   274.07    8.333   9.312  10.015   9.975  10.316   9.793   9.916   9.131   8.268   9.342   9.485   9.172   8.961   9.169   9.674
   253.39    9.728   9.413   9.125   9.621   9.473   9.047   9.027   8.485   8.529   9.666   9.206   8.852   9.139   9.924   9.017
   232.71    8.428   9.259   9.154   8.968   9.012   9.140   9.161   8.369   8.786   9.178   9.829   9.616   9.391  10.144   9.697
   212.04    8.189   8.230   9.356   9.590   8.858   9.484   8.961   9.933   9.446   9.443   9.951   9.636   9.722   9.760  10.689
   191.36    8.243   8.974   9.784   9.455   8.353   8.787   8.619  10.240   9.480  10.196   9.846  10.184   9.509  10.606  10.056
   170.68    8.306   8.000   8.806   8.419   7.929   8.255  10.153  10.457  10.683  10.695  10.452  11.386   9.272  10.707  11.519
   150.00    8.472   8.099   8.062   8.564   8.011   7.466  10.100  10.116  10.412  11.654  12.472  11.503  10.826  10.563  11.457
   129.32    8.523   8.564   9.300  10.156   8.215  10.203  10.138  10.063  10.839  11.281  11.612  11.412  10.965  11.157  10.853
   108.64   10.264   9.369  10.107   9.252   9.572   9.484  11.444  11.138  10.261  11.044  11.570  11.460  11.030  10.591   9.883
    87.96   10.267   9.428   9.450   9.639  10.071   9.663  10.802  11.603   9.962  11.785  11.313  12.487  11.323  10.666  10.686
    67.29    9.517   9.845  10.650  11.049  11.459  10.075  10.845  10.771  10.351  11.835  12.714  13.204  12.931  12.322  12.582
    46.61    9.818   8.898  10.159   9.779  10.100  10.096   9.813  10.344   9.427  10.327  10.778  11.732  11.447  12.770  11.377
    25.93   10.278   9.398   9.999   8.792   8.772   8.968   9.479  10.223   9.992  10.347  11.667  10.423  11.065  11.374  11.855
     5.25    9.835  10.219   9.527   9.373   9.820   8.703   9.423  10.237  10.217  10.468  10.923  10.833  10.687  10.793  11.801

   Height   Standard deviation at grid points for the v component:
   294.75    7.965   7.965   7.965   7.965   7.965   7.965   7.965   7.965   7.965   7.965   7.965   7.965   7.965   7.965   7.965
   274.07    7.965   7.965   7.965   7.965   7.965   7.965   7.965   7.965   7.965   7.965   7.965   7.965   7.965   7.965   7.965
   253.39    7.965   7.965   7.965   7.965   7.965   7.965   7.965   7.965   7.965   7.965   7.965   7.965   7.965   7.965   7.965
   232.71    7.965   7.965   7.965   7.965   7.965   7.965   7.965   7.965   7.965   7.965   7.965   7.965   7.965   7.965   7.965
   212.04    7.965   7.965   7.965   7.965   7.965   7.965   7.965   7.965   7.965   7.965   7.965   7.965   7.965   7.965   7.965
   191.36    7.965   7.965   7.965   7.965   7.965   7.965   7.965   7.965   7.965   7.965   7.965   7.965   7.965   7.965   7.965
   170.68    7.965   7.965   7.965   7.965   7.965   7.965   7.965   7.965   7.965   7.965   7.965   7.965   7.965   7.965   7.965
   150.00    7.965   7.965   7.965   7.965   7.965   7.965   7.965   7.965   7.965   7.965   7.965   7.965   7.965   7.965   7.965
   129.32    7.965   7.965   7.965   7.965   7.965   7.965   7.965   7.965   7.965   7.965   7.965   7.965   7.965   7.965   7.965
   108.64    7.965   7.965   7.965   7.965   7.965   7.965   7.965   7.965   7.965   7.965   7.965   7.965   7.965   7.965   7.965
    87.96    7.965   7.965   7.965   7.965   7.965   7.965   7.965   7.965   7.965   7.965   7.965   7.965   7.965   7.965   7.965
    67.29    7.965   7.965   7.965   7.965   7.965   7.965   7.965   7.965   7.965   7.965   7.965   7.965   7.965   7.965   7.965
    46.61    7.965   7.965   7.965   7.965   7.965   7.965   7.965   7.965   7.965   7.965   7.965   7.965   7.965   7.965   7.965
    25.93    7.965   7.965   7.965   7.965   7.965   7.965   7.965   7.965   7.965   7.965   7.965   7.965   7.965   7.965   7.965
     5.25    7.965   7.965   7.965   7.965   7.965   7.965   7.965   7.965   7.965   7.965   7.965   7.965   7.965   7.965   7.965

   Height   Standard deviation at grid points for the w component:
   294.75    4.677   4.677   4.677   4.677   4.677   4.677   4.677   4.677   4.677   4.677   4.677   4.677   4.677   4.677   4.677
   274.07    4.677   4.677   4.677   4.677   4.677   4.677   4.677   4.677   4.677   4.677   4.677   4.677   4.677   4.677   4.677
   253.39    4.677   4.677   4.677   4.677   4.677   4.677   4.677   4.677   4.677   4.677   4.677   4.677   4.677   4.677   4.677
   232.71    4.677   4.677   4.677   4.677   4.677   4.677   4.677   4.677   4.677   4.677   4.677   4.677   4.677   4.677   4.677
   212.04    4.677   4.677   4.677   4.677   4.677   4.677   4.677   4.677   4.677   4.677   4.677   4.677   4.677   4.677   4.677
   191.36    4.677   4.677   4.677   4.677   4.677   4.677   4.677   4.677   4.677   4.677   4.677   4.677   4.677   4.677   4.677
   170.68    4.677   4.677   4.677   4.677   4.677   4.677   4.677   4.677   4.677   4.677   4.677   4.677   4.677   4.677   4.677
   150.00    4.677   4.677   4.677   4.677   4.677   4.677   4.677   4.677   4.677   4.677   4.677   4.677   4.677   4.677   4.677
   129.32    4.677   4.677   4.677   4.677   4.677   4.677   4.677   4.677   4.677   4.677   4.677   4.677   4.677   4.677   4.677
   108.64    4.677   4.677   4.677   4.677   4.677   4.677   4.677   4.677   4.677   4.677   4.677   4.677   4.677   4.677   4.677
    87.96    4.677   4.677   4.677   4.677   4.677   4.677   4.677   4.677   4.677   4.677   4.677   4.677   4.677   4.677   4.677
    67.29    4.677   4.677   4.677   4.677   4.677   4.677   4.677   4.677   4.677   4.677   4.677   4.677   4.677   4.677   4.677
    46.61    4.677   4.677   4.677   4.677   4.677   4.677   4.677   4.677   4.677   4.677   4.677   4.677   4.677   4.677   4.677
    25.93    4.677   4.677   4.677   4.677   4.677   4.677   4.677   4.677   4.677   4.677   4.677   4.677   4.677   4.677   4.677
     5.25    4.677   4.677   4.677   4.677   4.677   4.677   4.677   4.677   4.677   4.677   4.677   4.677   4.677   4.677   4.677

   Mean standard deviation across all grid points:
      u component:    9.938 m/s
      v component:    7.965 m/s
      w component:    4.677 m/s


U-component (X) statistics from the interpolated hub point:

   Mean =  97.0000 m/s
   TI   =  10.4286 %


Processing complete.  10.48 CPU seconds used.
