
This summary file was generated by TurbSim (from OpenFAST-v3.5.1-607-g88e18ed3) on 14-Dec-2024 at 20:03:55.


Runtime Options:

    656411  Random seed #1
    RANLUX  Type of random number generator
         F  Output binary HH turbulence parameters?
         F  Output formatted turbulence parameters?
         F  Output AeroDyn HH files?
         T  Output AeroDyn FF files?
         F  Output BLADED FF files?
         F  Output tower data?
         F  Output HAWC FF files?
         F  Output formatted FF files?
         T  Output coherent turbulence time step file?
 0 -  NONE  IEC turbulence models scaled to exact specified standard deviation


Turbine/Model Specifications:

        15  Vertical grid-point matrix dimension
        15  Horizontal grid-point matrix dimension
     0.100  Time step [seconds]
    60.000  Analysis time [seconds]
    60.000  Usable output time [seconds]
   150.000  Hub height [m]
   289.500  Grid height [m]
   350.000  Grid width [m]
     0.000  Vertical flow angle [degrees]
     0.000  Horizontal flow angle [degrees]


Meteorological Boundary Conditions:

    IECKAI  IEC Kaimal spectral model
         3  IEC standard: IEC 61400-3 Ed. 1: 2006
    11.000  Percent turbulence intensity, IEC 61400-3 Ed. 1: 2006
       NTM  IEC Normal Turbulence Model
       N/A  IEC Extreme Turbulence Model (ETM) "c" parameter [m/s]
       PL   Wind profile type
   150.000  Reference height [m]
    97.000  Reference wind speed [m/s]
       N/A  Jet height [m]
     0.120  Power law exponent
     0.030  Surface roughness length [m]


Non-IEC Meteorological Boundary Conditions:

       N/A  Site latitude [degrees]
       N/A  Gradient Richardson number
       N/A  Friction or shear velocity [m/s]
       N/A  Mixing layer depth [m]
       N/A  Mean hub u'w' Reynolds stress
       N/A  Mean hub u'v' Reynolds stress
       N/A  Mean hub v'w' Reynolds stress


Spatial Coherence Models:

       IEC  u-component coherence model
      NONE  v-component coherence model
      NONE  w-component coherence model
(   12.000, 0.353E-03)  u-component coherence parameters
                   N/A  v-component coherence parameters
                   N/A  w-component coherence parameters
       N/A  Coherence exponent


You have requested that the following file(s) be generated:

   Turbsim_Vhub_97_seednum_656411.Turbsim.bts (AeroDyn/TurbSim full-field wind file)


Turbulence Simulation Scaling Parameter Summary:

   Turbulence model used                            =  IEC Kaimal
   Turbulence characteristic                        =  User-specified
   IEC standard                                     =  IEC 61400-3 Ed. 1: 2006
   Mean wind speed at hub height                    =   97.000 m/s
   Characteristic value of standard deviation       =   10.670 m/s
   Turbulence scale                                 =   42.000 m
   u-component integral scale                       =  340.200 m
   Coherency scale                                  =  340.200 m
   Characteristic value of hub turbulence intensity =   11.000%
   Gradient Richardson number                       =    0.000

   Wind profile type                                =  Power law
   Power law exponent                               =    0.120
   Mean shear across rotor disk                     =    0.139 (m/s)/m
   Assumed rotor diameter                           =  289.500 m
   Surface roughness length                         =    0.030 m

   Nyquist frequency of turbulent wind field        =    5.000 Hz

   Number of time steps in the FFT                  =      600
   Number of time steps output                      =      600
   Number of points simulated                       =      225


Mean Flow Angles:

   Vertical   =   0.0 degrees
   Horizontal =   0.0 degrees

Mean Wind Speed Profile:

   Height    Wind Speed   Horizontal Angle  Vertical Angle  U-comp (X)   V-comp (Y)   W-comp (Z)
     (m)        (m/s)         (degrees)       (degrees)       (m/s)        (m/s)        (m/s)   
   ------    ----------   ----------------  --------------  ----------   ----------   ----------
    294.8      105.19            0.00            0.00        105.19         0.00         0.00
    274.1      104.28            0.00            0.00        104.28         0.00         0.00
    253.4      103.30            0.00            0.00        103.30         0.00         0.00
    232.7      102.25            0.00            0.00        102.25         0.00         0.00
    212.0      101.11            0.00            0.00        101.11         0.00         0.00
    191.4       99.88            0.00            0.00         99.88         0.00         0.00
    170.7       98.51            0.00            0.00         98.51         0.00         0.00
    150.0       97.00            0.00            0.00         97.00         0.00         0.00
    129.3       95.29            0.00            0.00         95.29         0.00         0.00
    108.6       93.32            0.00            0.00         93.32         0.00         0.00
     88.0       90.98            0.00            0.00         90.98         0.00         0.00
     67.3       88.10            0.00            0.00         88.10         0.00         0.00
     46.6       84.31            0.00            0.00         84.31         0.00         0.00
     25.9       78.58            0.00            0.00         78.58         0.00         0.00
      5.2       64.87            0.00            0.00         64.87         0.00         0.00


Harvested Random Seeds after Generation of the Random Numbers:

      1881463 K 1
            0 K 2


Hub-Height Simulated Turbulence Statistical Summary:

   Type of Wind        Min (m/s)   Mean (m/s)    Max (m/s)  Sigma (m/s)       TI (%)
   ----------------    ---------   ----------    ---------  -----------       ------
   Longitudinal (u)        64.01        97.00       127.30        9.651        9.949
   Lateral (v)            -23.64         0.00        24.98        7.965        8.211
   Vertical (w)           -16.39         0.00        14.82        4.677        4.822
   U component             64.01        97.00       127.30        9.651        9.949
   V component            -23.64         0.00        24.98        7.965        8.211
   W component            -16.39         0.00        14.82        4.677        4.822
   Horizontal (U&V)        64.62        97.33       127.82        9.627        9.891
   Total                   65.05        97.44       127.89        9.609        9.862

                       Min Reynolds     Mean Reynolds    Max Reynolds    Correlation
   Product             Stress (m/s)^2   Stress (m/s)^2   Stress (m/s)^2  Coefficient
   ----------------    --------------   --------------   --------------  -----------
   u'w'                   -335.371            -1.185           222.653        -0.026
   u'v'                   -357.408           -10.206           303.934        -0.133
   v'w'                   -173.628             1.058           151.625         0.028


   Friction Velocity (Ustar)  =      1.089 m/s
   Maximum Instantaneous TKE  =    611.469 (m/s)^2
   Maximum Instantaneous CTKE =    210.971 (m/s)^2


Grid Point Variance Summary:

   Y-coord -175.00 -150.00 -125.00 -100.00  -75.00  -50.00  -25.00    0.00   25.00   50.00   75.00  100.00  125.00  150.00  175.00

   Height   Standard deviation at grid points for the u component:
   294.75    9.965  10.690   9.527  10.604  10.049   9.804   9.449  10.675  13.058  14.442  13.394  12.671  11.506  11.085  11.376
   274.07   10.657   9.741  10.664  10.184   9.780   9.230  10.299  10.161  12.172  13.836  12.818  12.482  12.120  11.345  10.866
   253.39   10.638   9.218   9.511  10.541   9.711   8.528   9.528  10.913  11.927  12.875  12.333  11.286  12.195  12.285  10.427
   232.71    9.156   9.377  10.489  10.246   9.725   9.089   9.509  11.390  13.114  12.380  11.963  11.627  12.172  11.180   9.648
   212.04    9.796  10.149  11.024   9.782   9.035   9.241   9.564  10.570  12.160  12.350  11.012  11.304  11.228  10.899  11.032
   191.36    8.609   8.929   9.069   9.016  10.448   9.290   9.855  11.156  11.325  11.631  11.844   9.984  11.274  12.315  10.477
   170.68    8.853   7.793   7.981   7.684   9.127  10.027   9.243  10.555  11.268  11.008  11.062  11.092  12.041  11.329  11.034
   150.00    9.126   7.592   8.585   8.673   9.036   9.532   8.463   9.651   9.988  10.210  11.580  11.586  10.787  10.538  10.410
   129.32    9.421   8.661   9.217   9.578   9.349   8.268   8.890   8.614   9.810   9.597  11.526  11.850  10.908  11.561  11.027
   108.64   10.729   9.874   9.193   9.188  10.020   8.193   8.580   9.807  10.524  10.474  10.956  10.202   9.942  11.015  11.008
    87.96   10.530   8.699   8.745   9.449   9.418   8.727   7.837   9.827  10.332  10.330  10.153   9.714   9.084  10.175  11.140
    67.29   10.213   8.798   9.636   9.548   9.427   8.506   9.651   9.418   9.266  10.702  10.727   9.436   9.972   9.696  10.824
    46.61    9.032  10.073   9.174   8.703   8.444   7.646   9.592   9.713   8.566   9.118  10.754  10.142   9.791   9.432   9.907
    25.93    9.160   9.411   9.294   8.574   8.544   7.553   8.330   9.199   9.382   9.583  10.822  10.669   9.378   8.877   9.061
     5.25    9.835   9.053   9.337   9.770   9.330   7.975   7.878   9.053   9.932   9.842   9.229   9.744   8.883   8.826   9.573

   Height   Standard deviation at grid points for the v component:
   294.75    7.965   7.965   7.965   7.965   7.965   7.965   7.965   7.965   7.965   7.965   7.965   7.965   7.965   7.965   7.965
   274.07    7.965   7.965   7.965   7.965   7.965   7.965   7.965   7.965   7.965   7.965   7.965   7.965   7.965   7.965   7.965
   253.39    7.965   7.965   7.965   7.965   7.965   7.965   7.965   7.965   7.965   7.965   7.965   7.965   7.965   7.965   7.965
   232.71    7.965   7.965   7.965   7.965   7.965   7.965   7.965   7.965   7.965   7.965   7.965   7.965   7.965   7.965   7.965
   212.04    7.965   7.965   7.965   7.965   7.965   7.965   7.965   7.965   7.965   7.965   7.965   7.965   7.965   7.965   7.965
   191.36    7.965   7.965   7.965   7.965   7.965   7.965   7.965   7.965   7.965   7.965   7.965   7.965   7.965   7.965   7.965
   170.68    7.965   7.965   7.965   7.965   7.965   7.965   7.965   7.965   7.965   7.965   7.965   7.965   7.965   7.965   7.965
   150.00    7.965   7.965   7.965   7.965   7.965   7.965   7.965   7.965   7.965   7.965   7.965   7.965   7.965   7.965   7.965
   129.32    7.965   7.965   7.965   7.965   7.965   7.965   7.965   7.965   7.965   7.965   7.965   7.965   7.965   7.965   7.965
   108.64    7.965   7.965   7.965   7.965   7.965   7.965   7.965   7.965   7.965   7.965   7.965   7.965   7.965   7.965   7.965
    87.96    7.965   7.965   7.965   7.965   7.965   7.965   7.965   7.965   7.965   7.965   7.965   7.965   7.965   7.965   7.965
    67.29    7.965   7.965   7.965   7.965   7.965   7.965   7.965   7.965   7.965   7.965   7.965   7.965   7.965   7.965   7.965
    46.61    7.965   7.965   7.965   7.965   7.965   7.965   7.965   7.965   7.965   7.965   7.965   7.965   7.965   7.965   7.965
    25.93    7.965   7.965   7.965   7.965   7.965   7.965   7.965   7.965   7.965   7.965   7.965   7.965   7.965   7.965   7.965
     5.25    7.965   7.965   7.965   7.965   7.965   7.965   7.965   7.965   7.965   7.965   7.965   7.965   7.965   7.965   7.965

   Height   Standard deviation at grid points for the w component:
   294.75    4.677   4.677   4.677   4.677   4.677   4.677   4.677   4.677   4.677   4.677   4.677   4.677   4.677   4.677   4.677
   274.07    4.677   4.677   4.677   4.677   4.677   4.677   4.677   4.677   4.677   4.677   4.677   4.677   4.677   4.677   4.677
   253.39    4.677   4.677   4.677   4.677   4.677   4.677   4.677   4.677   4.677   4.677   4.677   4.677   4.677   4.677   4.677
   232.71    4.677   4.677   4.677   4.677   4.677   4.677   4.677   4.677   4.677   4.677   4.677   4.677   4.677   4.677   4.677
   212.04    4.677   4.677   4.677   4.677   4.677   4.677   4.677   4.677   4.677   4.677   4.677   4.677   4.677   4.677   4.677
   191.36    4.677   4.677   4.677   4.677   4.677   4.677   4.677   4.677   4.677   4.677   4.677   4.677   4.677   4.677   4.677
   170.68    4.677   4.677   4.677   4.677   4.677   4.677   4.677   4.677   4.677   4.677   4.677   4.677   4.677   4.677   4.677
   150.00    4.677   4.677   4.677   4.677   4.677   4.677   4.677   4.677   4.677   4.677   4.677   4.677   4.677   4.677   4.677
   129.32    4.677   4.677   4.677   4.677   4.677   4.677   4.677   4.677   4.677   4.677   4.677   4.677   4.677   4.677   4.677
   108.64    4.677   4.677   4.677   4.677   4.677   4.677   4.677   4.677   4.677   4.677   4.677   4.677   4.677   4.677   4.677
    87.96    4.677   4.677   4.677   4.677   4.677   4.677   4.677   4.677   4.677   4.677   4.677   4.677   4.677   4.677   4.677
    67.29    4.677   4.677   4.677   4.677   4.677   4.677   4.677   4.677   4.677   4.677   4.677   4.677   4.677   4.677   4.677
    46.61    4.677   4.677   4.677   4.677   4.677   4.677   4.677   4.677   4.677   4.677   4.677   4.677   4.677   4.677   4.677
    25.93    4.677   4.677   4.677   4.677   4.677   4.677   4.677   4.677   4.677   4.677   4.677   4.677   4.677   4.677   4.677
     5.25    4.677   4.677   4.677   4.677   4.677   4.677   4.677   4.677   4.677   4.677   4.677   4.677   4.677   4.677   4.677

   Mean standard deviation across all grid points:
      u component:   10.098 m/s
      v component:    7.965 m/s
      w component:    4.677 m/s


U-component (X) statistics from the interpolated hub point:

   Mean =  97.0000 m/s
   TI   =   9.9492 %


Processing complete.  9.2683 CPU seconds used.
