
This summary file was generated by TurbSim (from OpenFAST-v3.5.1-607-g88e18ed3) on 13-Dec-2024 at 13:54:43.


Runtime Options:

    929617  Random seed #1
    RANLUX  Type of random number generator
         F  Output binary HH turbulence parameters?
         F  Output formatted turbulence parameters?
         F  Output AeroDyn HH files?
         T  Output AeroDyn FF files?
         F  Output BLADED FF files?
         F  Output tower data?
         F  Output HAWC FF files?
         F  Output formatted FF files?
         T  Output coherent turbulence time step file?
 0 -  NONE  IEC turbulence models scaled to exact specified standard deviation


Turbine/Model Specifications:

        15  Vertical grid-point matrix dimension
        15  Horizontal grid-point matrix dimension
     0.100  Time step [seconds]
   800.000  Analysis time [seconds]
   800.000  Usable output time [seconds]
   150.000  Hub height [m]
   289.500  Grid height [m]
   350.000  Grid width [m]
     0.000  Vertical flow angle [degrees]
     0.000  Horizontal flow angle [degrees]


Meteorological Boundary Conditions:

    IECKAI  IEC Kaimal spectral model
         3  IEC standard: IEC 61400-3 Ed. 1: 2006
    11.000  Percent turbulence intensity, IEC 61400-3 Ed. 1: 2006
       NTM  IEC Normal Turbulence Model
       N/A  IEC Extreme Turbulence Model (ETM) "c" parameter [m/s]
       PL   Wind profile type
   150.000  Reference height [m]
    97.000  Reference wind speed [m/s]
       N/A  Jet height [m]
     0.120  Power law exponent
     0.030  Surface roughness length [m]


Non-IEC Meteorological Boundary Conditions:

       N/A  Site latitude [degrees]
       N/A  Gradient Richardson number
       N/A  Friction or shear velocity [m/s]
       N/A  Mixing layer depth [m]
       N/A  Mean hub u'w' Reynolds stress
       N/A  Mean hub u'v' Reynolds stress
       N/A  Mean hub v'w' Reynolds stress


Spatial Coherence Models:

       IEC  u-component coherence model
      NONE  v-component coherence model
      NONE  w-component coherence model
(   12.000, 0.353E-03)  u-component coherence parameters
                   N/A  v-component coherence parameters
                   N/A  w-component coherence parameters
       N/A  Coherence exponent


You have requested that the following file(s) be generated:

   Turbsim_Vhub_97_seednum_929617.Turbsim.bts (AeroDyn/TurbSim full-field wind file)


Turbulence Simulation Scaling Parameter Summary:

   Turbulence model used                            =  IEC Kaimal
   Turbulence characteristic                        =  User-specified
   IEC standard                                     =  IEC 61400-3 Ed. 1: 2006
   Mean wind speed at hub height                    =   97.000 m/s
   Characteristic value of standard deviation       =   10.670 m/s
   Turbulence scale                                 =   42.000 m
   u-component integral scale                       =  340.200 m
   Coherency scale                                  =  340.200 m
   Characteristic value of hub turbulence intensity =   11.000%
   Gradient Richardson number                       =    0.000

   Wind profile type                                =  Power law
   Power law exponent                               =    0.120
   Mean shear across rotor disk                     =    0.139 (m/s)/m
   Assumed rotor diameter                           =  289.500 m
   Surface roughness length                         =    0.030 m

   Nyquist frequency of turbulent wind field        =    5.000 Hz

   Number of time steps in the FFT                  =     8000
   Number of time steps output                      =     8000
   Number of points simulated                       =      225


Mean Flow Angles:

   Vertical   =   0.0 degrees
   Horizontal =   0.0 degrees

Mean Wind Speed Profile:

   Height    Wind Speed   Horizontal Angle  Vertical Angle  U-comp (X)   V-comp (Y)   W-comp (Z)
     (m)        (m/s)         (degrees)       (degrees)       (m/s)        (m/s)        (m/s)   
   ------    ----------   ----------------  --------------  ----------   ----------   ----------
    294.8      105.19            0.00            0.00        105.19         0.00         0.00
    274.1      104.28            0.00            0.00        104.28         0.00         0.00
    253.4      103.30            0.00            0.00        103.30         0.00         0.00
    232.7      102.25            0.00            0.00        102.25         0.00         0.00
    212.0      101.11            0.00            0.00        101.11         0.00         0.00
    191.4       99.88            0.00            0.00         99.88         0.00         0.00
    170.7       98.51            0.00            0.00         98.51         0.00         0.00
    150.0       97.00            0.00            0.00         97.00         0.00         0.00
    129.3       95.29            0.00            0.00         95.29         0.00         0.00
    108.6       93.32            0.00            0.00         93.32         0.00         0.00
     88.0       90.98            0.00            0.00         90.98         0.00         0.00
     67.3       88.10            0.00            0.00         88.10         0.00         0.00
     46.6       84.31            0.00            0.00         84.31         0.00         0.00
     25.9       78.58            0.00            0.00         78.58         0.00         0.00
      5.2       64.87            0.00            0.00         64.87         0.00         0.00


Harvested Random Seeds after Generation of the Random Numbers:

     25087500 K 1
            0 K 2


Hub-Height Simulated Turbulence Statistical Summary:

   Type of Wind        Min (m/s)   Mean (m/s)    Max (m/s)  Sigma (m/s)       TI (%)
   ----------------    ---------   ----------    ---------  -----------       ------
   Longitudinal (u)        54.48        97.00       138.17       10.458       10.781
   Lateral (v)            -27.68        -0.00        29.94        8.123        8.374
   Vertical (w)           -16.95         0.00        18.47        4.704        4.850
   U component             54.48        97.00       138.17       10.458       10.781
   V component            -27.68        -0.00        29.94        8.123        8.374
   W component            -16.95         0.00        18.47        4.704        4.850
   Horizontal (U&V)        55.56        97.34       138.38       10.428       10.713
   Total                   55.79        97.46       138.43       10.415       10.687

                       Min Reynolds     Mean Reynolds    Max Reynolds    Correlation
   Product             Stress (m/s)^2   Stress (m/s)^2   Stress (m/s)^2  Coefficient
   ----------------    --------------   --------------   --------------  -----------
   u'w'                   -341.680             0.161           480.196         0.003
   u'v'                   -838.681            -1.799           531.963        -0.021
   v'w'                   -252.371             0.500           324.402         0.013


   Friction Velocity (Ustar)  =      0.401 m/s
   Maximum Instantaneous TKE  =   1086.066 (m/s)^2
   Maximum Instantaneous CTKE =    419.565 (m/s)^2


Grid Point Variance Summary:

   Y-coord -175.00 -150.00 -125.00 -100.00  -75.00  -50.00  -25.00    0.00   25.00   50.00   75.00  100.00  125.00  150.00  175.00

   Height   Standard deviation at grid points for the u component:
   294.75   10.630  10.843  10.634  10.511  10.327  10.614  10.564  10.661  10.397  10.678  10.176  10.285  10.645  10.734  10.667
   274.07   10.995  10.662  10.441  10.316  10.382  10.753  10.431  10.480  10.519  10.505  10.332  10.407  10.488  10.541  10.606
   253.39   10.829  10.335  10.380  10.294  10.485  10.468  10.450  10.701  10.442  10.182  10.153  10.034   9.830  10.179  10.453
   232.71   10.840  10.676  10.626  10.675  10.760  10.125  10.354  10.254   9.912   9.843  10.088   9.857   9.783   9.885   9.827
   212.04   11.151  10.494  10.467  10.582  10.390  10.249  10.354  10.111  10.127   9.676  10.065   9.913   9.620   9.840   9.870
   191.36   10.702  10.387  10.469  10.595  10.291  10.351   9.933   9.908   9.834   9.715   9.719  10.128  10.113  10.037  10.124
   170.68   10.524  10.472  10.549  10.528  10.456  10.329  10.218  10.121  10.089   9.991  10.369  10.000  10.358  10.549  10.725
   150.00   10.697  10.649  10.646  11.093  10.813  10.217  10.403  10.458  10.259  10.474  10.790  10.452  10.183  10.387  10.845
   129.32   10.331  10.408  10.854  11.253  11.004  10.849  10.309  10.255  10.546  10.335  10.297   9.989  10.199  10.360  10.255
   108.64   10.387  10.177  10.731  10.648  10.701  10.918  10.575  10.379  10.169  10.101   9.994  10.188  10.810  10.478  10.074
    87.96   10.232  10.017  10.266  10.504  10.224  10.698  10.836  10.365  10.201  10.082  10.000   9.894  10.321  10.201  10.237
    67.29   10.241  10.309  10.126  10.024  10.312  10.659  10.864  10.695  10.335  10.076  10.076   9.906  10.215  10.072   9.988
    46.61   10.265  10.145  10.200  10.282  10.182  10.662  10.501  10.348  10.165   9.885   9.898   9.940  10.393  10.085   9.898
    25.93   10.438   9.914  10.085   9.957   9.715  10.298  10.151  10.442   9.898  10.076  10.179  10.049  10.233  10.374  10.055
     5.25   10.382   9.963  10.158  10.095  10.005  10.356  10.237  10.481  10.432  10.279  10.019  10.071   9.962  10.275  10.030

   Height   Standard deviation at grid points for the v component:
   294.75    8.123   8.123   8.123   8.123   8.123   8.123   8.123   8.123   8.123   8.123   8.123   8.123   8.123   8.123   8.123
   274.07    8.123   8.123   8.123   8.123   8.123   8.123   8.123   8.123   8.123   8.123   8.123   8.123   8.123   8.123   8.123
   253.39    8.123   8.123   8.123   8.123   8.123   8.123   8.123   8.123   8.123   8.123   8.123   8.123   8.123   8.123   8.123
   232.71    8.123   8.123   8.123   8.123   8.123   8.123   8.123   8.123   8.123   8.123   8.123   8.123   8.123   8.123   8.123
   212.04    8.123   8.123   8.123   8.123   8.123   8.123   8.123   8.123   8.123   8.123   8.123   8.123   8.123   8.123   8.123
   191.36    8.123   8.123   8.123   8.123   8.123   8.123   8.123   8.123   8.123   8.123   8.123   8.123   8.123   8.123   8.123
   170.68    8.123   8.123   8.123   8.123   8.123   8.123   8.123   8.123   8.123   8.123   8.123   8.123   8.123   8.123   8.123
   150.00    8.123   8.123   8.123   8.123   8.123   8.123   8.123   8.123   8.123   8.123   8.123   8.123   8.123   8.123   8.123
   129.32    8.123   8.123   8.123   8.123   8.123   8.123   8.123   8.123   8.123   8.123   8.123   8.123   8.123   8.123   8.123
   108.64    8.123   8.123   8.123   8.123   8.123   8.123   8.123   8.123   8.123   8.123   8.123   8.123   8.123   8.123   8.123
    87.96    8.123   8.123   8.123   8.123   8.123   8.123   8.123   8.123   8.123   8.123   8.123   8.123   8.123   8.123   8.123
    67.29    8.123   8.123   8.123   8.123   8.123   8.123   8.123   8.123   8.123   8.123   8.123   8.123   8.123   8.123   8.123
    46.61    8.123   8.123   8.123   8.123   8.123   8.123   8.123   8.123   8.123   8.123   8.123   8.123   8.123   8.123   8.123
    25.93    8.123   8.123   8.123   8.123   8.123   8.123   8.123   8.123   8.123   8.123   8.123   8.123   8.123   8.123   8.123
     5.25    8.123   8.123   8.123   8.123   8.123   8.123   8.123   8.123   8.123   8.123   8.123   8.123   8.123   8.123   8.123

   Height   Standard deviation at grid points for the w component:
   294.75    4.704   4.704   4.704   4.704   4.704   4.704   4.704   4.704   4.704   4.704   4.704   4.704   4.704   4.704   4.704
   274.07    4.704   4.704   4.704   4.704   4.704   4.704   4.704   4.704   4.704   4.704   4.704   4.704   4.704   4.704   4.704
   253.39    4.704   4.704   4.704   4.704   4.704   4.704   4.704   4.704   4.704   4.704   4.704   4.704   4.704   4.704   4.704
   232.71    4.704   4.704   4.704   4.704   4.704   4.704   4.704   4.704   4.704   4.704   4.704   4.704   4.704   4.704   4.704
   212.04    4.704   4.704   4.704   4.704   4.704   4.704   4.704   4.704   4.704   4.704   4.704   4.704   4.704   4.704   4.704
   191.36    4.704   4.704   4.704   4.704   4.704   4.704   4.704   4.704   4.704   4.704   4.704   4.704   4.704   4.704   4.704
   170.68    4.704   4.704   4.704   4.704   4.704   4.704   4.704   4.704   4.704   4.704   4.704   4.704   4.704   4.704   4.704
   150.00    4.704   4.704   4.704   4.704   4.704   4.704   4.704   4.704   4.704   4.704   4.704   4.704   4.704   4.704   4.704
   129.32    4.704   4.704   4.704   4.704   4.704   4.704   4.704   4.704   4.704   4.704   4.704   4.704   4.704   4.704   4.704
   108.64    4.704   4.704   4.704   4.704   4.704   4.704   4.704   4.704   4.704   4.704   4.704   4.704   4.704   4.704   4.704
    87.96    4.704   4.704   4.704   4.704   4.704   4.704   4.704   4.704   4.704   4.704   4.704   4.704   4.704   4.704   4.704
    67.29    4.704   4.704   4.704   4.704   4.704   4.704   4.704   4.704   4.704   4.704   4.704   4.704   4.704   4.704   4.704
    46.61    4.704   4.704   4.704   4.704   4.704   4.704   4.704   4.704   4.704   4.704   4.704   4.704   4.704   4.704   4.704
    25.93    4.704   4.704   4.704   4.704   4.704   4.704   4.704   4.704   4.704   4.704   4.704   4.704   4.704   4.704   4.704
     5.25    4.704   4.704   4.704   4.704   4.704   4.704   4.704   4.704   4.704   4.704   4.704   4.704   4.704   4.704   4.704

   Mean standard deviation across all grid points:
      u component:   10.324 m/s
      v component:    8.123 m/s
      w component:    4.704 m/s


U-component (X) statistics from the interpolated hub point:

   Mean =  97.0000 m/s
   TI   =  10.7812 %


Processing complete.  462.89 CPU seconds used.
