
This summary file was generated by TurbSim (from OpenFAST-v3.5.1-607-g88e18ed3) on 14-Dec-2024 at 20:03:23.


Runtime Options:

    653177  Random seed #1
    RANLUX  Type of random number generator
         F  Output binary HH turbulence parameters?
         F  Output formatted turbulence parameters?
         F  Output AeroDyn HH files?
         T  Output AeroDyn FF files?
         F  Output BLADED FF files?
         F  Output tower data?
         F  Output HAWC FF files?
         F  Output formatted FF files?
         T  Output coherent turbulence time step file?
 0 -  NONE  IEC turbulence models scaled to exact specified standard deviation


Turbine/Model Specifications:

        15  Vertical grid-point matrix dimension
        15  Horizontal grid-point matrix dimension
     0.100  Time step [seconds]
    60.000  Analysis time [seconds]
    60.000  Usable output time [seconds]
   150.000  Hub height [m]
   289.500  Grid height [m]
   350.000  Grid width [m]
     0.000  Vertical flow angle [degrees]
     0.000  Horizontal flow angle [degrees]


Meteorological Boundary Conditions:

    IECKAI  IEC Kaimal spectral model
         3  IEC standard: IEC 61400-3 Ed. 1: 2006
    11.000  Percent turbulence intensity, IEC 61400-3 Ed. 1: 2006
       NTM  IEC Normal Turbulence Model
       N/A  IEC Extreme Turbulence Model (ETM) "c" parameter [m/s]
       PL   Wind profile type
   150.000  Reference height [m]
     9.000  Reference wind speed [m/s]
       N/A  Jet height [m]
     0.120  Power law exponent
     0.030  Surface roughness length [m]


Non-IEC Meteorological Boundary Conditions:

       N/A  Site latitude [degrees]
       N/A  Gradient Richardson number
       N/A  Friction or shear velocity [m/s]
       N/A  Mixing layer depth [m]
       N/A  Mean hub u'w' Reynolds stress
       N/A  Mean hub u'v' Reynolds stress
       N/A  Mean hub v'w' Reynolds stress


Spatial Coherence Models:

       IEC  u-component coherence model
      NONE  v-component coherence model
      NONE  w-component coherence model
(   12.000, 0.353E-03)  u-component coherence parameters
                   N/A  v-component coherence parameters
                   N/A  w-component coherence parameters
       N/A  Coherence exponent


You have requested that the following file(s) be generated:

   Turbsim_Vhub_9_seednum_653177.Turbsim.bts (AeroDyn/TurbSim full-field wind file)


Turbulence Simulation Scaling Parameter Summary:

   Turbulence model used                            =  IEC Kaimal
   Turbulence characteristic                        =  User-specified
   IEC standard                                     =  IEC 61400-3 Ed. 1: 2006
   Mean wind speed at hub height                    =    9.000 m/s
   Characteristic value of standard deviation       =    0.990 m/s
   Turbulence scale                                 =   42.000 m
   u-component integral scale                       =  340.200 m
   Coherency scale                                  =  340.200 m
   Characteristic value of hub turbulence intensity =   11.000%
   Gradient Richardson number                       =    0.000

   Wind profile type                                =  Power law
   Power law exponent                               =    0.120
   Mean shear across rotor disk                     =    0.013 (m/s)/m
   Assumed rotor diameter                           =  289.500 m
   Surface roughness length                         =    0.030 m

   Nyquist frequency of turbulent wind field        =    5.000 Hz

   Number of time steps in the FFT                  =      600
   Number of time steps output                      =      600
   Number of points simulated                       =      225


Mean Flow Angles:

   Vertical   =   0.0 degrees
   Horizontal =   0.0 degrees

Mean Wind Speed Profile:

   Height    Wind Speed   Horizontal Angle  Vertical Angle  U-comp (X)   V-comp (Y)   W-comp (Z)
     (m)        (m/s)         (degrees)       (degrees)       (m/s)        (m/s)        (m/s)   
   ------    ----------   ----------------  --------------  ----------   ----------   ----------
    294.8        9.76            0.00            0.00          9.76         0.00         0.00
    274.1        9.68            0.00            0.00          9.68         0.00         0.00
    253.4        9.58            0.00            0.00          9.58         0.00         0.00
    232.7        9.49            0.00            0.00          9.49         0.00         0.00
    212.0        9.38            0.00            0.00          9.38         0.00         0.00
    191.4        9.27            0.00            0.00          9.27         0.00         0.00
    170.7        9.14            0.00            0.00          9.14         0.00         0.00
    150.0        9.00            0.00            0.00          9.00         0.00         0.00
    129.3        8.84            0.00            0.00          8.84         0.00         0.00
    108.6        8.66            0.00            0.00          8.66         0.00         0.00
     88.0        8.44            0.00            0.00          8.44         0.00         0.00
     67.3        8.17            0.00            0.00          8.17         0.00         0.00
     46.6        7.82            0.00            0.00          7.82         0.00         0.00
     25.9        7.29            0.00            0.00          7.29         0.00         0.00
      5.2        6.02            0.00            0.00          6.02         0.00         0.00


Harvested Random Seeds after Generation of the Random Numbers:

      1881463 K 1
            0 K 2


Hub-Height Simulated Turbulence Statistical Summary:

   Type of Wind        Min (m/s)   Mean (m/s)    Max (m/s)  Sigma (m/s)       TI (%)
   ----------------    ---------   ----------    ---------  -----------       ------
   Longitudinal (u)         7.54         9.00        10.68        0.672        7.468
   Lateral (v)             -1.64         0.00         1.74        0.656        7.286
   Vertical (w)            -1.28         0.00         1.26        0.458        5.093
   U component              7.54         9.00        10.68        0.672        7.468
   V component             -1.64         0.00         1.74        0.656        7.286
   W component             -1.28         0.00         1.26        0.458        5.093
   Horizontal (U&V)         7.54         9.02        10.72        0.672        7.447
   Total                    7.59         9.04        10.73        0.674        7.462

                       Min Reynolds     Mean Reynolds    Max Reynolds    Correlation
   Product             Stress (m/s)^2   Stress (m/s)^2   Stress (m/s)^2  Coefficient
   ----------------    --------------   --------------   --------------  -----------
   u'w'                     -1.123             0.076             1.394         0.245
   u'v'                     -1.724            -0.108             1.074        -0.244
   v'w'                     -1.165            -0.084             0.542        -0.279


   Friction Velocity (Ustar)  =      0.275 m/s
   Maximum Instantaneous TKE  =      1.930 (m/s)^2
   Maximum Instantaneous CTKE =      0.958 (m/s)^2


Grid Point Variance Summary:

   Y-coord -175.00 -150.00 -125.00 -100.00  -75.00  -50.00  -25.00    0.00   25.00   50.00   75.00  100.00  125.00  150.00  175.00

   Height   Standard deviation at grid points for the u component:
   294.75    0.846   0.738   0.741   0.620   0.767   0.618   0.656   0.596   0.917   0.859   0.601   0.934   0.691   0.820   0.728
   274.07    0.834   0.764   0.764   0.650   0.718   0.787   0.646   0.560   0.807   0.760   0.833   0.896   0.850   1.000   0.549
   253.39    0.794   0.664   0.694   0.717   0.599   0.621   0.583   0.820   0.771   0.710   0.697   0.727   0.877   0.865   0.636
   232.71    0.718   0.696   0.678   0.852   0.887   0.473   0.616   0.860   0.607   0.523   0.546   0.694   0.753   0.787   0.830
   212.04    0.622   0.698   0.738   0.731   0.723   0.518   0.547   0.753   0.729   0.705   0.570   0.653   0.496   0.782   0.585
   191.36    0.595   0.548   0.557   0.601   0.563   0.541   0.625   0.685   0.651   0.513   0.512   0.710   0.832   0.712   0.545
   170.68    0.652   0.676   0.633   0.503   0.543   0.596   0.469   0.659   0.657   0.611   0.753   0.617   0.650   0.512   0.538
   150.00    0.683   0.762   0.567   0.571   0.642   0.664   0.716   0.672   0.571   0.528   0.636   0.456   0.536   0.515   0.684
   129.32    0.592   0.669   0.786   0.607   0.679   0.745   0.663   0.666   0.601   0.517   0.547   0.579   0.449   0.539   0.623
   108.64    0.774   0.710   0.706   0.784   0.664   0.699   0.646   0.723   0.667   0.567   0.666   0.811   0.611   0.535   0.626
    87.96    0.731   0.647   0.684   0.571   0.625   0.721   0.705   0.695   0.552   0.595   0.550   0.748   0.700   0.568   0.588
    67.29    0.669   0.558   0.647   0.534   0.765   0.491   0.562   0.651   0.649   0.536   0.529   0.558   0.654   0.689   0.621
    46.61    0.652   0.529   0.504   0.466   0.624   0.649   0.577   0.762   0.920   0.752   0.787   0.456   0.754   0.579   0.827
    25.93    0.558   0.564   0.679   0.809   0.691   0.585   0.599   0.671   0.835   0.442   0.510   0.560   0.793   0.749   0.803
     5.25    0.668   0.724   0.830   0.842   0.753   0.589   0.710   0.514   0.709   0.587   0.522   0.584   0.719   0.844   0.815

   Height   Standard deviation at grid points for the v component:
   294.75    0.656   0.656   0.656   0.656   0.656   0.656   0.656   0.656   0.656   0.656   0.656   0.656   0.656   0.656   0.656
   274.07    0.656   0.656   0.656   0.656   0.656   0.656   0.656   0.656   0.656   0.656   0.656   0.656   0.656   0.656   0.656
   253.39    0.656   0.656   0.656   0.656   0.656   0.656   0.656   0.656   0.656   0.656   0.656   0.656   0.656   0.656   0.656
   232.71    0.656   0.656   0.656   0.656   0.656   0.656   0.656   0.656   0.656   0.656   0.656   0.656   0.656   0.656   0.656
   212.04    0.656   0.656   0.656   0.656   0.656   0.656   0.656   0.656   0.656   0.656   0.656   0.656   0.656   0.656   0.656
   191.36    0.656   0.656   0.656   0.656   0.656   0.656   0.656   0.656   0.656   0.656   0.656   0.656   0.656   0.656   0.656
   170.68    0.656   0.656   0.656   0.656   0.656   0.656   0.656   0.656   0.656   0.656   0.656   0.656   0.656   0.656   0.656
   150.00    0.656   0.656   0.656   0.656   0.656   0.656   0.656   0.656   0.656   0.656   0.656   0.656   0.656   0.656   0.656
   129.32    0.656   0.656   0.656   0.656   0.656   0.656   0.656   0.656   0.656   0.656   0.656   0.656   0.656   0.656   0.656
   108.64    0.656   0.656   0.656   0.656   0.656   0.656   0.656   0.656   0.656   0.656   0.656   0.656   0.656   0.656   0.656
    87.96    0.656   0.656   0.656   0.656   0.656   0.656   0.656   0.656   0.656   0.656   0.656   0.656   0.656   0.656   0.656
    67.29    0.656   0.656   0.656   0.656   0.656   0.656   0.656   0.656   0.656   0.656   0.656   0.656   0.656   0.656   0.656
    46.61    0.656   0.656   0.656   0.656   0.656   0.656   0.656   0.656   0.656   0.656   0.656   0.656   0.656   0.656   0.656
    25.93    0.656   0.656   0.656   0.656   0.656   0.656   0.656   0.656   0.656   0.656   0.656   0.656   0.656   0.656   0.656
     5.25    0.656   0.656   0.656   0.656   0.656   0.656   0.656   0.656   0.656   0.656   0.656   0.656   0.656   0.656   0.656

   Height   Standard deviation at grid points for the w component:
   294.75    0.458   0.458   0.458   0.458   0.458   0.458   0.458   0.458   0.458   0.458   0.458   0.458   0.458   0.458   0.458
   274.07    0.458   0.458   0.458   0.458   0.458   0.458   0.458   0.458   0.458   0.458   0.458   0.458   0.458   0.458   0.458
   253.39    0.458   0.458   0.458   0.458   0.458   0.458   0.458   0.458   0.458   0.458   0.458   0.458   0.458   0.458   0.458
   232.71    0.458   0.458   0.458   0.458   0.458   0.458   0.458   0.458   0.458   0.458   0.458   0.458   0.458   0.458   0.458
   212.04    0.458   0.458   0.458   0.458   0.458   0.458   0.458   0.458   0.458   0.458   0.458   0.458   0.458   0.458   0.458
   191.36    0.458   0.458   0.458   0.458   0.458   0.458   0.458   0.458   0.458   0.458   0.458   0.458   0.458   0.458   0.458
   170.68    0.458   0.458   0.458   0.458   0.458   0.458   0.458   0.458   0.458   0.458   0.458   0.458   0.458   0.458   0.458
   150.00    0.458   0.458   0.458   0.458   0.458   0.458   0.458   0.458   0.458   0.458   0.458   0.458   0.458   0.458   0.458
   129.32    0.458   0.458   0.458   0.458   0.458   0.458   0.458   0.458   0.458   0.458   0.458   0.458   0.458   0.458   0.458
   108.64    0.458   0.458   0.458   0.458   0.458   0.458   0.458   0.458   0.458   0.458   0.458   0.458   0.458   0.458   0.458
    87.96    0.458   0.458   0.458   0.458   0.458   0.458   0.458   0.458   0.458   0.458   0.458   0.458   0.458   0.458   0.458
    67.29    0.458   0.458   0.458   0.458   0.458   0.458   0.458   0.458   0.458   0.458   0.458   0.458   0.458   0.458   0.458
    46.61    0.458   0.458   0.458   0.458   0.458   0.458   0.458   0.458   0.458   0.458   0.458   0.458   0.458   0.458   0.458
    25.93    0.458   0.458   0.458   0.458   0.458   0.458   0.458   0.458   0.458   0.458   0.458   0.458   0.458   0.458   0.458
     5.25    0.458   0.458   0.458   0.458   0.458   0.458   0.458   0.458   0.458   0.458   0.458   0.458   0.458   0.458   0.458

   Mean standard deviation across all grid points:
      u component:    0.664 m/s
      v component:    0.656 m/s
      w component:    0.458 m/s


U-component (X) statistics from the interpolated hub point:

   Mean =   9.0000 m/s
   TI   =   7.4684 %


Processing complete.  5.4072 CPU seconds used.
