
This summary file was generated by TurbSim (from OpenFAST-v3.5.1-607-g88e18ed3) on 14-Dec-2024 at 20:02:00.


Runtime Options:

    298704  Random seed #1
    RANLUX  Type of random number generator
         F  Output binary HH turbulence parameters?
         F  Output formatted turbulence parameters?
         F  Output AeroDyn HH files?
         T  Output AeroDyn FF files?
         F  Output BLADED FF files?
         F  Output tower data?
         F  Output HAWC FF files?
         F  Output formatted FF files?
         T  Output coherent turbulence time step file?
 0 -  NONE  IEC turbulence models scaled to exact specified standard deviation


Turbine/Model Specifications:

        15  Vertical grid-point matrix dimension
        15  Horizontal grid-point matrix dimension
     0.100  Time step [seconds]
    60.000  Analysis time [seconds]
    60.000  Usable output time [seconds]
   150.000  Hub height [m]
   289.500  Grid height [m]
   350.000  Grid width [m]
     0.000  Vertical flow angle [degrees]
     0.000  Horizontal flow angle [degrees]


Meteorological Boundary Conditions:

    IECKAI  IEC Kaimal spectral model
         3  IEC standard: IEC 61400-3 Ed. 1: 2006
    11.000  Percent turbulence intensity, IEC 61400-3 Ed. 1: 2006
       NTM  IEC Normal Turbulence Model
       N/A  IEC Extreme Turbulence Model (ETM) "c" parameter [m/s]
       PL   Wind profile type
   150.000  Reference height [m]
    57.000  Reference wind speed [m/s]
       N/A  Jet height [m]
     0.120  Power law exponent
     0.030  Surface roughness length [m]


Non-IEC Meteorological Boundary Conditions:

       N/A  Site latitude [degrees]
       N/A  Gradient Richardson number
       N/A  Friction or shear velocity [m/s]
       N/A  Mixing layer depth [m]
       N/A  Mean hub u'w' Reynolds stress
       N/A  Mean hub u'v' Reynolds stress
       N/A  Mean hub v'w' Reynolds stress


Spatial Coherence Models:

       IEC  u-component coherence model
      NONE  v-component coherence model
      NONE  w-component coherence model
(   12.000, 0.353E-03)  u-component coherence parameters
                   N/A  v-component coherence parameters
                   N/A  w-component coherence parameters
       N/A  Coherence exponent


You have requested that the following file(s) be generated:

   Turbsim_Vhub_57_seednum_298704.Turbsim.bts (AeroDyn/TurbSim full-field wind file)


Turbulence Simulation Scaling Parameter Summary:

   Turbulence model used                            =  IEC Kaimal
   Turbulence characteristic                        =  User-specified
   IEC standard                                     =  IEC 61400-3 Ed. 1: 2006
   Mean wind speed at hub height                    =   57.000 m/s
   Characteristic value of standard deviation       =    6.270 m/s
   Turbulence scale                                 =   42.000 m
   u-component integral scale                       =  340.200 m
   Coherency scale                                  =  340.200 m
   Characteristic value of hub turbulence intensity =   11.000%
   Gradient Richardson number                       =    0.000

   Wind profile type                                =  Power law
   Power law exponent                               =    0.120
   Mean shear across rotor disk                     =    0.082 (m/s)/m
   Assumed rotor diameter                           =  289.500 m
   Surface roughness length                         =    0.030 m

   Nyquist frequency of turbulent wind field        =    5.000 Hz

   Number of time steps in the FFT                  =      600
   Number of time steps output                      =      600
   Number of points simulated                       =      225


Mean Flow Angles:

   Vertical   =   0.0 degrees
   Horizontal =   0.0 degrees

Mean Wind Speed Profile:

   Height    Wind Speed   Horizontal Angle  Vertical Angle  U-comp (X)   V-comp (Y)   W-comp (Z)
     (m)        (m/s)         (degrees)       (degrees)       (m/s)        (m/s)        (m/s)   
   ------    ----------   ----------------  --------------  ----------   ----------   ----------
    294.8       61.81            0.00            0.00         61.81         0.00         0.00
    274.1       61.28            0.00            0.00         61.28         0.00         0.00
    253.4       60.70            0.00            0.00         60.70         0.00         0.00
    232.7       60.08            0.00            0.00         60.08         0.00         0.00
    212.0       59.42            0.00            0.00         59.42         0.00         0.00
    191.4       58.69            0.00            0.00         58.69         0.00         0.00
    170.7       57.89            0.00            0.00         57.89         0.00         0.00
    150.0       57.00            0.00            0.00         57.00         0.00         0.00
    129.3       55.99            0.00            0.00         55.99         0.00         0.00
    108.6       54.84            0.00            0.00         54.84         0.00         0.00
     88.0       53.46            0.00            0.00         53.46         0.00         0.00
     67.3       51.77            0.00            0.00         51.77         0.00         0.00
     46.6       49.54            0.00            0.00         49.54         0.00         0.00
     25.9       46.17            0.00            0.00         46.17         0.00         0.00
      5.2       38.12            0.00            0.00         38.12         0.00         0.00


Harvested Random Seeds after Generation of the Random Numbers:

      1881463 K 1
            0 K 2


Hub-Height Simulated Turbulence Statistical Summary:

   Type of Wind        Min (m/s)   Mean (m/s)    Max (m/s)  Sigma (m/s)       TI (%)
   ----------------    ---------   ----------    ---------  -----------       ------
   Longitudinal (u)        42.54        57.00        71.56        5.055        8.868
   Lateral (v)            -11.23        -0.00        12.78        4.685        8.220
   Vertical (w)            -8.39        -0.00         9.18        2.845        4.991
   U component             42.54        57.00        71.56        5.055        8.868
   V component            -11.23        -0.00        12.78        4.685        8.220
   W component             -8.39        -0.00         9.18        2.845        4.991
   Horizontal (U&V)        43.20        57.19        71.81        5.023        8.783
   Total                   43.27        57.27        71.86        5.011        8.751

                       Min Reynolds     Mean Reynolds    Max Reynolds    Correlation
   Product             Stress (m/s)^2   Stress (m/s)^2   Stress (m/s)^2  Coefficient
   ----------------    --------------   --------------   --------------  -----------
   u'w'                    -66.304            -0.772            60.890        -0.054
   u'v'                   -114.305             4.119           122.512         0.174
   v'w'                    -41.268             2.268            66.987         0.170


   Friction Velocity (Ustar)  =      0.878 m/s
   Maximum Instantaneous TKE  =    140.487 (m/s)^2
   Maximum Instantaneous CTKE =     67.308 (m/s)^2


Grid Point Variance Summary:

   Y-coord -175.00 -150.00 -125.00 -100.00  -75.00  -50.00  -25.00    0.00   25.00   50.00   75.00  100.00  125.00  150.00  175.00

   Height   Standard deviation at grid points for the u component:
   294.75    5.950   5.323   5.565   6.068   5.143   4.774   4.761   5.056   6.013   6.466   6.986   7.135   6.775   6.089   4.977
   274.07    5.497   6.192   5.984   5.635   5.083   4.687   4.875   5.631   6.070   7.170   6.946   6.776   5.994   5.872   4.959
   253.39    5.631   5.697   5.009   5.024   5.563   4.917   4.880   5.883   6.352   6.266   6.960   6.696   6.760   5.902   5.413
   232.71    5.467   5.112   4.849   5.919   6.013   5.352   6.102   5.842   6.305   6.066   6.340   7.170   6.004   6.386   6.388
   212.04    5.485   5.214   4.898   5.803   5.922   6.165   5.541   5.504   5.820   5.307   6.508   6.922   6.141   6.685   5.805
   191.36    5.522   5.115   4.748   5.430   6.275   6.645   5.639   5.266   5.499   6.059   5.762   6.225   5.850   6.186   4.622
   170.68    5.185   5.251   4.566   5.807   5.502   5.210   5.359   4.732   5.033   5.186   5.307   5.367   5.132   5.320   6.098
   150.00    4.827   6.038   6.522   5.214   5.636   5.053   5.555   5.055   4.808   4.901   4.937   5.840   5.482   5.677   5.451
   129.32    5.190   5.508   5.678   5.871   5.543   4.649   6.031   5.699   5.280   4.800   5.364   6.231   6.101   6.386   4.910
   108.64    5.243   4.526   5.201   4.840   5.062   4.761   5.634   5.295   4.644   4.807   5.056   5.858   5.341   6.112   5.599
    87.96    5.983   5.854   5.206   4.559   4.780   5.097   5.347   4.960   4.419   5.403   5.840   5.298   5.856   5.785   5.338
    67.29    5.824   5.550   4.559   4.536   5.113   4.814   5.343   5.265   5.403   5.639   6.570   5.191   5.398   5.226   5.149
    46.61    5.624   5.467   5.013   4.852   4.942   4.391   5.429   5.258   5.515   5.752   5.422   5.936   5.895   5.047   5.175
    25.93    5.793   5.066   4.753   4.413   4.649   5.284   5.122   5.167   5.207   6.113   6.492   6.176   5.705   4.522   4.836
     5.25    5.612   5.534   4.798   4.732   4.540   5.617   5.933   5.904   4.900   6.068   6.125   5.905   5.262   5.376   5.161

   Height   Standard deviation at grid points for the v component:
   294.75    4.685   4.685   4.685   4.685   4.685   4.685   4.685   4.685   4.685   4.685   4.685   4.685   4.685   4.685   4.685
   274.07    4.685   4.685   4.685   4.685   4.685   4.685   4.685   4.685   4.685   4.685   4.685   4.685   4.685   4.685   4.685
   253.39    4.685   4.685   4.685   4.685   4.685   4.685   4.685   4.685   4.685   4.685   4.685   4.685   4.685   4.685   4.685
   232.71    4.685   4.685   4.685   4.685   4.685   4.685   4.685   4.685   4.685   4.685   4.685   4.685   4.685   4.685   4.685
   212.04    4.685   4.685   4.685   4.685   4.685   4.685   4.685   4.685   4.685   4.685   4.685   4.685   4.685   4.685   4.685
   191.36    4.685   4.685   4.685   4.685   4.685   4.685   4.685   4.685   4.685   4.685   4.685   4.685   4.685   4.685   4.685
   170.68    4.685   4.685   4.685   4.685   4.685   4.685   4.685   4.685   4.685   4.685   4.685   4.685   4.685   4.685   4.685
   150.00    4.685   4.685   4.685   4.685   4.685   4.685   4.685   4.685   4.685   4.685   4.685   4.685   4.685   4.685   4.685
   129.32    4.685   4.685   4.685   4.685   4.685   4.685   4.685   4.685   4.685   4.685   4.685   4.685   4.685   4.685   4.685
   108.64    4.685   4.685   4.685   4.685   4.685   4.685   4.685   4.685   4.685   4.685   4.685   4.685   4.685   4.685   4.685
    87.96    4.685   4.685   4.685   4.685   4.685   4.685   4.685   4.685   4.685   4.685   4.685   4.685   4.685   4.685   4.685
    67.29    4.685   4.685   4.685   4.685   4.685   4.685   4.685   4.685   4.685   4.685   4.685   4.685   4.685   4.685   4.685
    46.61    4.685   4.685   4.685   4.685   4.685   4.685   4.685   4.685   4.685   4.685   4.685   4.685   4.685   4.685   4.685
    25.93    4.685   4.685   4.685   4.685   4.685   4.685   4.685   4.685   4.685   4.685   4.685   4.685   4.685   4.685   4.685
     5.25    4.685   4.685   4.685   4.685   4.685   4.685   4.685   4.685   4.685   4.685   4.685   4.685   4.685   4.685   4.685

   Height   Standard deviation at grid points for the w component:
   294.75    2.845   2.845   2.845   2.845   2.845   2.845   2.845   2.845   2.845   2.845   2.845   2.845   2.845   2.845   2.845
   274.07    2.845   2.845   2.845   2.845   2.845   2.845   2.845   2.845   2.845   2.845   2.845   2.845   2.845   2.845   2.845
   253.39    2.845   2.845   2.845   2.845   2.845   2.845   2.845   2.845   2.845   2.845   2.845   2.845   2.845   2.845   2.845
   232.71    2.845   2.845   2.845   2.845   2.845   2.845   2.845   2.845   2.845   2.845   2.845   2.845   2.845   2.845   2.845
   212.04    2.845   2.845   2.845   2.845   2.845   2.845   2.845   2.845   2.845   2.845   2.845   2.845   2.845   2.845   2.845
   191.36    2.845   2.845   2.845   2.845   2.845   2.845   2.845   2.845   2.845   2.845   2.845   2.845   2.845   2.845   2.845
   170.68    2.845   2.845   2.845   2.845   2.845   2.845   2.845   2.845   2.845   2.845   2.845   2.845   2.845   2.845   2.845
   150.00    2.845   2.845   2.845   2.845   2.845   2.845   2.845   2.845   2.845   2.845   2.845   2.845   2.845   2.845   2.845
   129.32    2.845   2.845   2.845   2.845   2.845   2.845   2.845   2.845   2.845   2.845   2.845   2.845   2.845   2.845   2.845
   108.64    2.845   2.845   2.845   2.845   2.845   2.845   2.845   2.845   2.845   2.845   2.845   2.845   2.845   2.845   2.845
    87.96    2.845   2.845   2.845   2.845   2.845   2.845   2.845   2.845   2.845   2.845   2.845   2.845   2.845   2.845   2.845
    67.29    2.845   2.845   2.845   2.845   2.845   2.845   2.845   2.845   2.845   2.845   2.845   2.845   2.845   2.845   2.845
    46.61    2.845   2.845   2.845   2.845   2.845   2.845   2.845   2.845   2.845   2.845   2.845   2.845   2.845   2.845   2.845
    25.93    2.845   2.845   2.845   2.845   2.845   2.845   2.845   2.845   2.845   2.845   2.845   2.845   2.845   2.845   2.845
     5.25    2.845   2.845   2.845   2.845   2.845   2.845   2.845   2.845   2.845   2.845   2.845   2.845   2.845   2.845   2.845

   Mean standard deviation across all grid points:
      u component:    5.530 m/s
      v component:    4.685 m/s
      w component:    2.845 m/s


U-component (X) statistics from the interpolated hub point:

   Mean =  57.0000 m/s
   TI   =   8.8676 %


Processing complete.  7.6424 CPU seconds used.
