
This summary file was generated by TurbSim (from OpenFAST-v3.5.1-607-g88e18ed3) on 14-Dec-2024 at 20:03:46.


Runtime Options:

    809813  Random seed #1
    RANLUX  Type of random number generator
         F  Output binary HH turbulence parameters?
         F  Output formatted turbulence parameters?
         F  Output AeroDyn HH files?
         T  Output AeroDyn FF files?
         F  Output BLADED FF files?
         F  Output tower data?
         F  Output HAWC FF files?
         F  Output formatted FF files?
         T  Output coherent turbulence time step file?
 0 -  NONE  IEC turbulence models scaled to exact specified standard deviation


Turbine/Model Specifications:

        15  Vertical grid-point matrix dimension
        15  Horizontal grid-point matrix dimension
     0.100  Time step [seconds]
    60.000  Analysis time [seconds]
    60.000  Usable output time [seconds]
   150.000  Hub height [m]
   289.500  Grid height [m]
   350.000  Grid width [m]
     0.000  Vertical flow angle [degrees]
     0.000  Horizontal flow angle [degrees]


Meteorological Boundary Conditions:

    IECKAI  IEC Kaimal spectral model
         3  IEC standard: IEC 61400-3 Ed. 1: 2006
    11.000  Percent turbulence intensity, IEC 61400-3 Ed. 1: 2006
       NTM  IEC Normal Turbulence Model
       N/A  IEC Extreme Turbulence Model (ETM) "c" parameter [m/s]
       PL   Wind profile type
   150.000  Reference height [m]
    57.000  Reference wind speed [m/s]
       N/A  Jet height [m]
     0.120  Power law exponent
     0.030  Surface roughness length [m]


Non-IEC Meteorological Boundary Conditions:

       N/A  Site latitude [degrees]
       N/A  Gradient Richardson number
       N/A  Friction or shear velocity [m/s]
       N/A  Mixing layer depth [m]
       N/A  Mean hub u'w' Reynolds stress
       N/A  Mean hub u'v' Reynolds stress
       N/A  Mean hub v'w' Reynolds stress


Spatial Coherence Models:

       IEC  u-component coherence model
      NONE  v-component coherence model
      NONE  w-component coherence model
(   12.000, 0.353E-03)  u-component coherence parameters
                   N/A  v-component coherence parameters
                   N/A  w-component coherence parameters
       N/A  Coherence exponent


You have requested that the following file(s) be generated:

   Turbsim_Vhub_57_seednum_809813.Turbsim.bts (AeroDyn/TurbSim full-field wind file)


Turbulence Simulation Scaling Parameter Summary:

   Turbulence model used                            =  IEC Kaimal
   Turbulence characteristic                        =  User-specified
   IEC standard                                     =  IEC 61400-3 Ed. 1: 2006
   Mean wind speed at hub height                    =   57.000 m/s
   Characteristic value of standard deviation       =    6.270 m/s
   Turbulence scale                                 =   42.000 m
   u-component integral scale                       =  340.200 m
   Coherency scale                                  =  340.200 m
   Characteristic value of hub turbulence intensity =   11.000%
   Gradient Richardson number                       =    0.000

   Wind profile type                                =  Power law
   Power law exponent                               =    0.120
   Mean shear across rotor disk                     =    0.082 (m/s)/m
   Assumed rotor diameter                           =  289.500 m
   Surface roughness length                         =    0.030 m

   Nyquist frequency of turbulent wind field        =    5.000 Hz

   Number of time steps in the FFT                  =      600
   Number of time steps output                      =      600
   Number of points simulated                       =      225


Mean Flow Angles:

   Vertical   =   0.0 degrees
   Horizontal =   0.0 degrees

Mean Wind Speed Profile:

   Height    Wind Speed   Horizontal Angle  Vertical Angle  U-comp (X)   V-comp (Y)   W-comp (Z)
     (m)        (m/s)         (degrees)       (degrees)       (m/s)        (m/s)        (m/s)   
   ------    ----------   ----------------  --------------  ----------   ----------   ----------
    294.8       61.81            0.00            0.00         61.81         0.00         0.00
    274.1       61.28            0.00            0.00         61.28         0.00         0.00
    253.4       60.70            0.00            0.00         60.70         0.00         0.00
    232.7       60.08            0.00            0.00         60.08         0.00         0.00
    212.0       59.42            0.00            0.00         59.42         0.00         0.00
    191.4       58.69            0.00            0.00         58.69         0.00         0.00
    170.7       57.89            0.00            0.00         57.89         0.00         0.00
    150.0       57.00            0.00            0.00         57.00         0.00         0.00
    129.3       55.99            0.00            0.00         55.99         0.00         0.00
    108.6       54.84            0.00            0.00         54.84         0.00         0.00
     88.0       53.46            0.00            0.00         53.46         0.00         0.00
     67.3       51.77            0.00            0.00         51.77         0.00         0.00
     46.6       49.54            0.00            0.00         49.54         0.00         0.00
     25.9       46.17            0.00            0.00         46.17         0.00         0.00
      5.2       38.12            0.00            0.00         38.12         0.00         0.00


Harvested Random Seeds after Generation of the Random Numbers:

      1881463 K 1
            0 K 2


Hub-Height Simulated Turbulence Statistical Summary:

   Type of Wind        Min (m/s)   Mean (m/s)    Max (m/s)  Sigma (m/s)       TI (%)
   ----------------    ---------   ----------    ---------  -----------       ------
   Longitudinal (u)        43.03        57.00        68.66        4.748        8.330
   Lateral (v)            -13.93        -0.00        12.98        4.685        8.220
   Vertical (w)            -7.23        -0.00        10.45        2.845        4.991
   U component             43.03        57.00        68.66        4.748        8.330
   V component            -13.93        -0.00        12.98        4.685        8.220
   W component             -7.23        -0.00        10.45        2.845        4.991
   Horizontal (U&V)        43.16        57.19        69.10        4.745        8.297
   Total                   43.16        57.26        69.14        4.745        8.286

                       Min Reynolds     Mean Reynolds    Max Reynolds    Correlation
   Product             Stress (m/s)^2   Stress (m/s)^2   Stress (m/s)^2  Coefficient
   ----------------    --------------   --------------   --------------  -----------
   u'w'                    -69.977            -2.440            73.957        -0.181
   u'v'                   -138.040            -6.314            78.071        -0.284
   v'w'                    -56.484             1.161            63.882         0.087


   Friction Velocity (Ustar)  =      1.562 m/s
   Maximum Instantaneous TKE  =    142.589 (m/s)^2
   Maximum Instantaneous CTKE =     72.108 (m/s)^2


Grid Point Variance Summary:

   Y-coord -175.00 -150.00 -125.00 -100.00  -75.00  -50.00  -25.00    0.00   25.00   50.00   75.00  100.00  125.00  150.00  175.00

   Height   Standard deviation at grid points for the u component:
   294.75    5.678   5.711   6.395   6.073   5.924   5.552   5.526   4.220   4.072   5.124   6.134   5.833   5.893   5.414   5.222
   274.07    5.728   6.452   6.232   5.585   5.718   5.766   4.475   4.696   4.958   4.954   5.565   6.009   5.564   5.548   4.602
   253.39    5.460   6.394   5.799   5.597   5.979   4.807   5.468   5.766   6.384   5.495   5.421   4.957   5.509   5.460   5.789
   232.71    4.962   5.543   5.050   5.269   5.693   5.488   5.353   5.716   4.781   4.903   5.114   5.050   5.369   5.277   6.069
   212.04    5.024   5.117   4.690   4.917   4.560   4.905   5.670   5.560   4.849   4.909   4.155   4.293   4.687   5.441   5.518
   191.36    4.960   4.763   5.037   5.151   4.624   4.984   5.355   5.571   4.875   4.777   4.900   5.630   5.834   5.112   5.770
   170.68    4.295   4.213   5.128   4.725   4.292   5.309   4.990   5.623   4.924   4.535   4.547   6.073   6.223   6.071   5.702
   150.00    4.632   4.548   4.986   5.061   4.549   5.011   4.964   4.748   4.759   4.915   5.634   5.819   6.152   5.537   5.052
   129.32    4.488   5.088   4.587   5.027   4.364   4.703   4.737   4.952   5.312   4.806   4.935   5.690   4.934   5.727   5.875
   108.64    4.458   4.993   5.554   5.153   4.817   5.319   3.837   4.526   5.613   5.139   5.424   4.682   4.823   4.995   5.518
    87.96    4.736   5.296   5.031   5.176   4.769   4.745   5.023   4.801   4.949   4.925   4.901   5.143   4.906   5.792   4.904
    67.29    5.502   5.200   4.583   4.862   3.841   4.429   5.214   4.745   5.099   4.905   4.839   5.054   5.296   4.956   5.677
    46.61    6.506   5.817   4.999   4.100   4.191   4.519   4.751   5.590   5.437   5.591   5.912   5.682   5.816   5.277   5.423
    25.93    6.272   5.419   4.404   4.838   4.763   4.724   4.223   5.515   5.753   5.155   4.886   5.477   5.448   5.139   4.782
     5.25    5.612   4.930   4.915   4.678   4.675   4.864   4.714   5.468   5.137   5.001   5.025   5.478   5.068   5.221   5.111

   Height   Standard deviation at grid points for the v component:
   294.75    4.685   4.685   4.685   4.685   4.685   4.685   4.685   4.685   4.685   4.685   4.685   4.685   4.685   4.685   4.685
   274.07    4.685   4.685   4.685   4.685   4.685   4.685   4.685   4.685   4.685   4.685   4.685   4.685   4.685   4.685   4.685
   253.39    4.685   4.685   4.685   4.685   4.685   4.685   4.685   4.685   4.685   4.685   4.685   4.685   4.685   4.685   4.685
   232.71    4.685   4.685   4.685   4.685   4.685   4.685   4.685   4.685   4.685   4.685   4.685   4.685   4.685   4.685   4.685
   212.04    4.685   4.685   4.685   4.685   4.685   4.685   4.685   4.685   4.685   4.685   4.685   4.685   4.685   4.685   4.685
   191.36    4.685   4.685   4.685   4.685   4.685   4.685   4.685   4.685   4.685   4.685   4.685   4.685   4.685   4.685   4.685
   170.68    4.685   4.685   4.685   4.685   4.685   4.685   4.685   4.685   4.685   4.685   4.685   4.685   4.685   4.685   4.685
   150.00    4.685   4.685   4.685   4.685   4.685   4.685   4.685   4.685   4.685   4.685   4.685   4.685   4.685   4.685   4.685
   129.32    4.685   4.685   4.685   4.685   4.685   4.685   4.685   4.685   4.685   4.685   4.685   4.685   4.685   4.685   4.685
   108.64    4.685   4.685   4.685   4.685   4.685   4.685   4.685   4.685   4.685   4.685   4.685   4.685   4.685   4.685   4.685
    87.96    4.685   4.685   4.685   4.685   4.685   4.685   4.685   4.685   4.685   4.685   4.685   4.685   4.685   4.685   4.685
    67.29    4.685   4.685   4.685   4.685   4.685   4.685   4.685   4.685   4.685   4.685   4.685   4.685   4.685   4.685   4.685
    46.61    4.685   4.685   4.685   4.685   4.685   4.685   4.685   4.685   4.685   4.685   4.685   4.685   4.685   4.685   4.685
    25.93    4.685   4.685   4.685   4.685   4.685   4.685   4.685   4.685   4.685   4.685   4.685   4.685   4.685   4.685   4.685
     5.25    4.685   4.685   4.685   4.685   4.685   4.685   4.685   4.685   4.685   4.685   4.685   4.685   4.685   4.685   4.685

   Height   Standard deviation at grid points for the w component:
   294.75    2.845   2.845   2.845   2.845   2.845   2.845   2.845   2.845   2.845   2.845   2.845   2.845   2.845   2.845   2.845
   274.07    2.845   2.845   2.845   2.845   2.845   2.845   2.845   2.845   2.845   2.845   2.845   2.845   2.845   2.845   2.845
   253.39    2.845   2.845   2.845   2.845   2.845   2.845   2.845   2.845   2.845   2.845   2.845   2.845   2.845   2.845   2.845
   232.71    2.845   2.845   2.845   2.845   2.845   2.845   2.845   2.845   2.845   2.845   2.845   2.845   2.845   2.845   2.845
   212.04    2.845   2.845   2.845   2.845   2.845   2.845   2.845   2.845   2.845   2.845   2.845   2.845   2.845   2.845   2.845
   191.36    2.845   2.845   2.845   2.845   2.845   2.845   2.845   2.845   2.845   2.845   2.845   2.845   2.845   2.845   2.845
   170.68    2.845   2.845   2.845   2.845   2.845   2.845   2.845   2.845   2.845   2.845   2.845   2.845   2.845   2.845   2.845
   150.00    2.845   2.845   2.845   2.845   2.845   2.845   2.845   2.845   2.845   2.845   2.845   2.845   2.845   2.845   2.845
   129.32    2.845   2.845   2.845   2.845   2.845   2.845   2.845   2.845   2.845   2.845   2.845   2.845   2.845   2.845   2.845
   108.64    2.845   2.845   2.845   2.845   2.845   2.845   2.845   2.845   2.845   2.845   2.845   2.845   2.845   2.845   2.845
    87.96    2.845   2.845   2.845   2.845   2.845   2.845   2.845   2.845   2.845   2.845   2.845   2.845   2.845   2.845   2.845
    67.29    2.845   2.845   2.845   2.845   2.845   2.845   2.845   2.845   2.845   2.845   2.845   2.845   2.845   2.845   2.845
    46.61    2.845   2.845   2.845   2.845   2.845   2.845   2.845   2.845   2.845   2.845   2.845   2.845   2.845   2.845   2.845
    25.93    2.845   2.845   2.845   2.845   2.845   2.845   2.845   2.845   2.845   2.845   2.845   2.845   2.845   2.845   2.845
     5.25    2.845   2.845   2.845   2.845   2.845   2.845   2.845   2.845   2.845   2.845   2.845   2.845   2.845   2.845   2.845

   Mean standard deviation across all grid points:
      u component:    5.177 m/s
      v component:    4.685 m/s
      w component:    2.845 m/s


U-component (X) statistics from the interpolated hub point:

   Mean =  57.0000 m/s
   TI   =   8.3304 %


Processing complete.  8.3823 CPU seconds used.
