
This summary file was generated by TurbSim (from OpenFAST-v3.5.1-607-g88e18ed3) on 14-Dec-2024 at 20:03:46.


Runtime Options:

    964515  Random seed #1
    RANLUX  Type of random number generator
         F  Output binary HH turbulence parameters?
         F  Output formatted turbulence parameters?
         F  Output AeroDyn HH files?
         T  Output AeroDyn FF files?
         F  Output BLADED FF files?
         F  Output tower data?
         F  Output HAWC FF files?
         F  Output formatted FF files?
         T  Output coherent turbulence time step file?
 0 -  NONE  IEC turbulence models scaled to exact specified standard deviation


Turbine/Model Specifications:

        15  Vertical grid-point matrix dimension
        15  Horizontal grid-point matrix dimension
     0.100  Time step [seconds]
    60.000  Analysis time [seconds]
    60.000  Usable output time [seconds]
   150.000  Hub height [m]
   289.500  Grid height [m]
   350.000  Grid width [m]
     0.000  Vertical flow angle [degrees]
     0.000  Horizontal flow angle [degrees]


Meteorological Boundary Conditions:

    IECKAI  IEC Kaimal spectral model
         3  IEC standard: IEC 61400-3 Ed. 1: 2006
    11.000  Percent turbulence intensity, IEC 61400-3 Ed. 1: 2006
       NTM  IEC Normal Turbulence Model
       N/A  IEC Extreme Turbulence Model (ETM) "c" parameter [m/s]
       PL   Wind profile type
   150.000  Reference height [m]
    57.000  Reference wind speed [m/s]
       N/A  Jet height [m]
     0.120  Power law exponent
     0.030  Surface roughness length [m]


Non-IEC Meteorological Boundary Conditions:

       N/A  Site latitude [degrees]
       N/A  Gradient Richardson number
       N/A  Friction or shear velocity [m/s]
       N/A  Mixing layer depth [m]
       N/A  Mean hub u'w' Reynolds stress
       N/A  Mean hub u'v' Reynolds stress
       N/A  Mean hub v'w' Reynolds stress


Spatial Coherence Models:

       IEC  u-component coherence model
      NONE  v-component coherence model
      NONE  w-component coherence model
(   12.000, 0.353E-03)  u-component coherence parameters
                   N/A  v-component coherence parameters
                   N/A  w-component coherence parameters
       N/A  Coherence exponent


You have requested that the following file(s) be generated:

   Turbsim_Vhub_57_seednum_964515.Turbsim.bts (AeroDyn/TurbSim full-field wind file)


Turbulence Simulation Scaling Parameter Summary:

   Turbulence model used                            =  IEC Kaimal
   Turbulence characteristic                        =  User-specified
   IEC standard                                     =  IEC 61400-3 Ed. 1: 2006
   Mean wind speed at hub height                    =   57.000 m/s
   Characteristic value of standard deviation       =    6.270 m/s
   Turbulence scale                                 =   42.000 m
   u-component integral scale                       =  340.200 m
   Coherency scale                                  =  340.200 m
   Characteristic value of hub turbulence intensity =   11.000%
   Gradient Richardson number                       =    0.000

   Wind profile type                                =  Power law
   Power law exponent                               =    0.120
   Mean shear across rotor disk                     =    0.082 (m/s)/m
   Assumed rotor diameter                           =  289.500 m
   Surface roughness length                         =    0.030 m

   Nyquist frequency of turbulent wind field        =    5.000 Hz

   Number of time steps in the FFT                  =      600
   Number of time steps output                      =      600
   Number of points simulated                       =      225


Mean Flow Angles:

   Vertical   =   0.0 degrees
   Horizontal =   0.0 degrees

Mean Wind Speed Profile:

   Height    Wind Speed   Horizontal Angle  Vertical Angle  U-comp (X)   V-comp (Y)   W-comp (Z)
     (m)        (m/s)         (degrees)       (degrees)       (m/s)        (m/s)        (m/s)   
   ------    ----------   ----------------  --------------  ----------   ----------   ----------
    294.8       61.81            0.00            0.00         61.81         0.00         0.00
    274.1       61.28            0.00            0.00         61.28         0.00         0.00
    253.4       60.70            0.00            0.00         60.70         0.00         0.00
    232.7       60.08            0.00            0.00         60.08         0.00         0.00
    212.0       59.42            0.00            0.00         59.42         0.00         0.00
    191.4       58.69            0.00            0.00         58.69         0.00         0.00
    170.7       57.89            0.00            0.00         57.89         0.00         0.00
    150.0       57.00            0.00            0.00         57.00         0.00         0.00
    129.3       55.99            0.00            0.00         55.99         0.00         0.00
    108.6       54.84            0.00            0.00         54.84         0.00         0.00
     88.0       53.46            0.00            0.00         53.46         0.00         0.00
     67.3       51.77            0.00            0.00         51.77         0.00         0.00
     46.6       49.54            0.00            0.00         49.54         0.00         0.00
     25.9       46.17            0.00            0.00         46.17         0.00         0.00
      5.2       38.12            0.00            0.00         38.12         0.00         0.00


Harvested Random Seeds after Generation of the Random Numbers:

      1881463 K 1
            0 K 2


Hub-Height Simulated Turbulence Statistical Summary:

   Type of Wind        Min (m/s)   Mean (m/s)    Max (m/s)  Sigma (m/s)       TI (%)
   ----------------    ---------   ----------    ---------  -----------       ------
   Longitudinal (u)        42.78        57.00        75.68        6.431       11.283
   Lateral (v)            -16.03        -0.00        11.94        4.685        8.220
   Vertical (w)            -8.80        -0.00         8.43        2.845        4.991
   U component             42.78        57.00        75.68        6.431       11.283
   V component            -16.03        -0.00        11.94        4.685        8.220
   W component             -8.80        -0.00         8.43        2.845        4.991
   Horizontal (U&V)        43.45        57.19        75.75        6.408       11.204
   Total                   43.48        57.27        75.76        6.392       11.161

                       Min Reynolds     Mean Reynolds    Max Reynolds    Correlation
   Product             Stress (m/s)^2   Stress (m/s)^2   Stress (m/s)^2  Coefficient
   ----------------    --------------   --------------   --------------  -----------
   u'w'                    -75.633             1.791            68.257         0.098
   u'v'                   -133.399            -2.098           110.544        -0.070
   v'w'                    -70.778             0.880            63.589         0.066


   Friction Velocity (Ustar)  =      1.338 m/s
   Maximum Instantaneous TKE  =    187.283 (m/s)^2
   Maximum Instantaneous CTKE =     71.605 (m/s)^2


Grid Point Variance Summary:

   Y-coord -175.00 -150.00 -125.00 -100.00  -75.00  -50.00  -25.00    0.00   25.00   50.00   75.00  100.00  125.00  150.00  175.00

   Height   Standard deviation at grid points for the u component:
   294.75    5.735   4.996   5.946   6.894   6.389   6.269   6.968   7.029   6.988   7.502   6.396   5.976   6.818   7.091   8.174
   274.07    6.100   5.595   7.077   6.486   7.022   6.017   6.487   7.617   7.853   7.106   6.962   7.086   6.895   8.097   8.333
   253.39    6.689   6.991   6.699   6.027   6.583   5.533   5.606   6.794   7.028   6.053   6.380   6.474   7.093   8.450   8.834
   232.71    6.145   6.301   6.383   5.699   5.577   6.066   5.861   5.837   6.372   5.728   5.979   6.659   8.337   9.012   8.146
   212.04    7.811   7.554   6.000   5.776   6.880   6.508   7.144   7.482   6.456   7.241   6.529   7.695   7.973   8.308   8.140
   191.36    8.157   7.292   6.907   5.581   6.615   6.692   7.262   8.212   7.336   6.298   7.693   7.274   7.286   7.448   7.439
   170.68    7.852   7.670   6.573   6.052   6.099   6.264   6.111   7.021   6.570   7.057   6.758   7.590   7.583   7.181   6.954
   150.00    8.017   7.911   7.241   6.304   5.829   6.497   5.997   6.431   5.894   6.039   6.896   6.914   6.959   6.282   7.067
   129.32    7.410   7.222   6.874   6.911   6.060   5.812   5.913   6.782   5.621   5.372   5.969   6.723   6.603   6.482   6.035
   108.64    6.658   6.514   6.527   6.687   6.742   6.346   6.090   5.596   6.840   5.652   5.437   6.219   5.571   5.489   5.507
    87.96    6.997   6.082   6.113   6.190   6.062   6.772   6.239   6.698   7.597   6.058   6.091   6.194   5.949   5.874   5.564
    67.29    5.997   5.796   5.807   6.166   5.293   6.026   6.506   6.962   7.415   5.768   5.570   6.053   5.114   5.797   6.438
    46.61    5.884   5.005   4.952   5.682   5.343   6.919   6.909   6.667   7.299   5.993   4.412   4.997   4.990   5.626   5.879
    25.93    5.177   4.892   4.949   5.332   5.493   6.408   6.621   7.164   7.119   6.592   5.155   4.801   5.027   5.426   5.531
     5.25    5.612   5.822   5.675   5.342   5.115   5.484   6.416   7.149   7.014   6.351   4.793   4.912   5.043   5.110   5.309

   Height   Standard deviation at grid points for the v component:
   294.75    4.685   4.685   4.685   4.685   4.685   4.685   4.685   4.685   4.685   4.685   4.685   4.685   4.685   4.685   4.685
   274.07    4.685   4.685   4.685   4.685   4.685   4.685   4.685   4.685   4.685   4.685   4.685   4.685   4.685   4.685   4.685
   253.39    4.685   4.685   4.685   4.685   4.685   4.685   4.685   4.685   4.685   4.685   4.685   4.685   4.685   4.685   4.685
   232.71    4.685   4.685   4.685   4.685   4.685   4.685   4.685   4.685   4.685   4.685   4.685   4.685   4.685   4.685   4.685
   212.04    4.685   4.685   4.685   4.685   4.685   4.685   4.685   4.685   4.685   4.685   4.685   4.685   4.685   4.685   4.685
   191.36    4.685   4.685   4.685   4.685   4.685   4.685   4.685   4.685   4.685   4.685   4.685   4.685   4.685   4.685   4.685
   170.68    4.685   4.685   4.685   4.685   4.685   4.685   4.685   4.685   4.685   4.685   4.685   4.685   4.685   4.685   4.685
   150.00    4.685   4.685   4.685   4.685   4.685   4.685   4.685   4.685   4.685   4.685   4.685   4.685   4.685   4.685   4.685
   129.32    4.685   4.685   4.685   4.685   4.685   4.685   4.685   4.685   4.685   4.685   4.685   4.685   4.685   4.685   4.685
   108.64    4.685   4.685   4.685   4.685   4.685   4.685   4.685   4.685   4.685   4.685   4.685   4.685   4.685   4.685   4.685
    87.96    4.685   4.685   4.685   4.685   4.685   4.685   4.685   4.685   4.685   4.685   4.685   4.685   4.685   4.685   4.685
    67.29    4.685   4.685   4.685   4.685   4.685   4.685   4.685   4.685   4.685   4.685   4.685   4.685   4.685   4.685   4.685
    46.61    4.685   4.685   4.685   4.685   4.685   4.685   4.685   4.685   4.685   4.685   4.685   4.685   4.685   4.685   4.685
    25.93    4.685   4.685   4.685   4.685   4.685   4.685   4.685   4.685   4.685   4.685   4.685   4.685   4.685   4.685   4.685
     5.25    4.685   4.685   4.685   4.685   4.685   4.685   4.685   4.685   4.685   4.685   4.685   4.685   4.685   4.685   4.685

   Height   Standard deviation at grid points for the w component:
   294.75    2.845   2.845   2.845   2.845   2.845   2.845   2.845   2.845   2.845   2.845   2.845   2.845   2.845   2.845   2.845
   274.07    2.845   2.845   2.845   2.845   2.845   2.845   2.845   2.845   2.845   2.845   2.845   2.845   2.845   2.845   2.845
   253.39    2.845   2.845   2.845   2.845   2.845   2.845   2.845   2.845   2.845   2.845   2.845   2.845   2.845   2.845   2.845
   232.71    2.845   2.845   2.845   2.845   2.845   2.845   2.845   2.845   2.845   2.845   2.845   2.845   2.845   2.845   2.845
   212.04    2.845   2.845   2.845   2.845   2.845   2.845   2.845   2.845   2.845   2.845   2.845   2.845   2.845   2.845   2.845
   191.36    2.845   2.845   2.845   2.845   2.845   2.845   2.845   2.845   2.845   2.845   2.845   2.845   2.845   2.845   2.845
   170.68    2.845   2.845   2.845   2.845   2.845   2.845   2.845   2.845   2.845   2.845   2.845   2.845   2.845   2.845   2.845
   150.00    2.845   2.845   2.845   2.845   2.845   2.845   2.845   2.845   2.845   2.845   2.845   2.845   2.845   2.845   2.845
   129.32    2.845   2.845   2.845   2.845   2.845   2.845   2.845   2.845   2.845   2.845   2.845   2.845   2.845   2.845   2.845
   108.64    2.845   2.845   2.845   2.845   2.845   2.845   2.845   2.845   2.845   2.845   2.845   2.845   2.845   2.845   2.845
    87.96    2.845   2.845   2.845   2.845   2.845   2.845   2.845   2.845   2.845   2.845   2.845   2.845   2.845   2.845   2.845
    67.29    2.845   2.845   2.845   2.845   2.845   2.845   2.845   2.845   2.845   2.845   2.845   2.845   2.845   2.845   2.845
    46.61    2.845   2.845   2.845   2.845   2.845   2.845   2.845   2.845   2.845   2.845   2.845   2.845   2.845   2.845   2.845
    25.93    2.845   2.845   2.845   2.845   2.845   2.845   2.845   2.845   2.845   2.845   2.845   2.845   2.845   2.845   2.845
     5.25    2.845   2.845   2.845   2.845   2.845   2.845   2.845   2.845   2.845   2.845   2.845   2.845   2.845   2.845   2.845

   Mean standard deviation across all grid points:
      u component:    6.454 m/s
      v component:    4.685 m/s
      w component:    2.845 m/s


U-component (X) statistics from the interpolated hub point:

   Mean =  57.0000 m/s
   TI   =  11.2829 %


Processing complete.  9.2138 CPU seconds used.
