
This summary file was generated by TurbSim (from OpenFAST-v3.5.1-607-g88e18ed3) on 14-Dec-2024 at 20:03:55.


Runtime Options:

    747715  Random seed #1
    RANLUX  Type of random number generator
         F  Output binary HH turbulence parameters?
         F  Output formatted turbulence parameters?
         F  Output AeroDyn HH files?
         T  Output AeroDyn FF files?
         F  Output BLADED FF files?
         F  Output tower data?
         F  Output HAWC FF files?
         F  Output formatted FF files?
         T  Output coherent turbulence time step file?
 0 -  NONE  IEC turbulence models scaled to exact specified standard deviation


Turbine/Model Specifications:

        15  Vertical grid-point matrix dimension
        15  Horizontal grid-point matrix dimension
     0.100  Time step [seconds]
    60.000  Analysis time [seconds]
    60.000  Usable output time [seconds]
   150.000  Hub height [m]
   289.500  Grid height [m]
   350.000  Grid width [m]
     0.000  Vertical flow angle [degrees]
     0.000  Horizontal flow angle [degrees]


Meteorological Boundary Conditions:

    IECKAI  IEC Kaimal spectral model
         3  IEC standard: IEC 61400-3 Ed. 1: 2006
    11.000  Percent turbulence intensity, IEC 61400-3 Ed. 1: 2006
       NTM  IEC Normal Turbulence Model
       N/A  IEC Extreme Turbulence Model (ETM) "c" parameter [m/s]
       PL   Wind profile type
   150.000  Reference height [m]
    97.000  Reference wind speed [m/s]
       N/A  Jet height [m]
     0.120  Power law exponent
     0.030  Surface roughness length [m]


Non-IEC Meteorological Boundary Conditions:

       N/A  Site latitude [degrees]
       N/A  Gradient Richardson number
       N/A  Friction or shear velocity [m/s]
       N/A  Mixing layer depth [m]
       N/A  Mean hub u'w' Reynolds stress
       N/A  Mean hub u'v' Reynolds stress
       N/A  Mean hub v'w' Reynolds stress


Spatial Coherence Models:

       IEC  u-component coherence model
      NONE  v-component coherence model
      NONE  w-component coherence model
(   12.000, 0.353E-03)  u-component coherence parameters
                   N/A  v-component coherence parameters
                   N/A  w-component coherence parameters
       N/A  Coherence exponent


You have requested that the following file(s) be generated:

   Turbsim_Vhub_97_seednum_747715.Turbsim.bts (AeroDyn/TurbSim full-field wind file)


Turbulence Simulation Scaling Parameter Summary:

   Turbulence model used                            =  IEC Kaimal
   Turbulence characteristic                        =  User-specified
   IEC standard                                     =  IEC 61400-3 Ed. 1: 2006
   Mean wind speed at hub height                    =   97.000 m/s
   Characteristic value of standard deviation       =   10.670 m/s
   Turbulence scale                                 =   42.000 m
   u-component integral scale                       =  340.200 m
   Coherency scale                                  =  340.200 m
   Characteristic value of hub turbulence intensity =   11.000%
   Gradient Richardson number                       =    0.000

   Wind profile type                                =  Power law
   Power law exponent                               =    0.120
   Mean shear across rotor disk                     =    0.139 (m/s)/m
   Assumed rotor diameter                           =  289.500 m
   Surface roughness length                         =    0.030 m

   Nyquist frequency of turbulent wind field        =    5.000 Hz

   Number of time steps in the FFT                  =      600
   Number of time steps output                      =      600
   Number of points simulated                       =      225


Mean Flow Angles:

   Vertical   =   0.0 degrees
   Horizontal =   0.0 degrees

Mean Wind Speed Profile:

   Height    Wind Speed   Horizontal Angle  Vertical Angle  U-comp (X)   V-comp (Y)   W-comp (Z)
     (m)        (m/s)         (degrees)       (degrees)       (m/s)        (m/s)        (m/s)   
   ------    ----------   ----------------  --------------  ----------   ----------   ----------
    294.8      105.19            0.00            0.00        105.19         0.00         0.00
    274.1      104.28            0.00            0.00        104.28         0.00         0.00
    253.4      103.30            0.00            0.00        103.30         0.00         0.00
    232.7      102.25            0.00            0.00        102.25         0.00         0.00
    212.0      101.11            0.00            0.00        101.11         0.00         0.00
    191.4       99.88            0.00            0.00         99.88         0.00         0.00
    170.7       98.51            0.00            0.00         98.51         0.00         0.00
    150.0       97.00            0.00            0.00         97.00         0.00         0.00
    129.3       95.29            0.00            0.00         95.29         0.00         0.00
    108.6       93.32            0.00            0.00         93.32         0.00         0.00
     88.0       90.98            0.00            0.00         90.98         0.00         0.00
     67.3       88.10            0.00            0.00         88.10         0.00         0.00
     46.6       84.31            0.00            0.00         84.31         0.00         0.00
     25.9       78.58            0.00            0.00         78.58         0.00         0.00
      5.2       64.87            0.00            0.00         64.87         0.00         0.00


Harvested Random Seeds after Generation of the Random Numbers:

      1881463 K 1
            0 K 2


Hub-Height Simulated Turbulence Statistical Summary:

   Type of Wind        Min (m/s)   Mean (m/s)    Max (m/s)  Sigma (m/s)       TI (%)
   ----------------    ---------   ----------    ---------  -----------       ------
   Longitudinal (u)        72.78        97.00       126.28       10.759       11.092
   Lateral (v)            -23.91        -0.00        22.09        7.965        8.211
   Vertical (w)           -14.36         0.00        12.96        4.677        4.822
   U component             72.78        97.00       126.28       10.759       11.092
   V component            -23.91        -0.00        22.09        7.965        8.211
   W component            -14.36         0.00        12.96        4.677        4.822
   Horizontal (U&V)        73.51        97.33       126.80       10.748       11.044
   Total                   73.51        97.44       126.81       10.730       11.011

                       Min Reynolds     Mean Reynolds    Max Reynolds    Correlation
   Product             Stress (m/s)^2   Stress (m/s)^2   Stress (m/s)^2  Coefficient
   ----------------    --------------   --------------   --------------  -----------
   u'w'                   -304.128             2.764           209.294         0.055
   u'v'                   -357.305            -8.819           252.751        -0.103
   v'w'                   -220.451             1.414           143.567         0.038


   Friction Velocity (Ustar)  =      1.663 m/s
   Maximum Instantaneous TKE  =    495.191 (m/s)^2
   Maximum Instantaneous CTKE =    182.281 (m/s)^2


Grid Point Variance Summary:

   Y-coord -175.00 -150.00 -125.00 -100.00  -75.00  -50.00  -25.00    0.00   25.00   50.00   75.00  100.00  125.00  150.00  175.00

   Height   Standard deviation at grid points for the u component:
   294.75    9.206   8.873   7.422   8.285   8.894   8.830   8.431   8.202   9.729   9.973   9.986   9.381  10.070   8.757   8.448
   274.07    8.860   8.694   9.012   8.713   8.953   8.852   7.788   9.497  10.283   9.837   9.361   9.779   9.716   9.169   9.413
   253.39    9.710   8.840   8.849   7.772   9.321   8.786  10.282  10.708   9.655   8.620   9.808   9.199   9.715  10.512  10.608
   232.71    9.078   9.112   9.330   7.841   9.399  11.137  10.613  10.359   8.893   9.554  10.473   9.092   8.877  10.220  10.343
   212.04    8.467   8.922   8.118   7.482   8.742  10.041   9.896  10.169   9.259   9.600   9.213   9.747   9.482  10.093   9.820
   191.36    9.290   9.678   8.263   7.497   8.188   9.649   9.687  10.016   9.839  10.295   9.445   9.532   9.589  10.498  11.563
   170.68    9.825   9.258   9.904   8.443   8.718   9.482  11.028   9.687   9.933   9.171   8.962   9.721   9.351   9.792  10.936
   150.00    8.718  10.471  10.473   8.638   8.866   9.406  10.516  10.759   9.531   9.353   9.565   9.327   9.039   9.450   9.891
   129.32    9.047  10.433  10.879   9.962   9.503   9.946  10.865  11.105  10.996  10.850   9.713   9.496   9.529   9.405   9.245
   108.64   11.874  11.723  10.970  11.560  10.571  10.174  11.231  10.503  10.086  10.381  10.699   9.982   9.102   9.286   9.262
    87.96   11.976  11.850  11.382  12.495  11.257   9.707  11.164  10.701   9.485  10.409  10.414  10.216   9.060   9.120   9.406
    67.29   11.105  11.440  12.217  11.655  11.919  12.016  12.273  10.179  10.760  10.647  10.448   9.988   8.895   9.149   9.451
    46.61   11.478  11.270  11.084  11.132  11.147  11.941  11.459  10.738   9.927   9.830  10.686  10.001   8.996   8.463   9.260
    25.93   10.582  10.725  11.100  11.408  11.296  11.338  10.411   9.933   9.023   9.580   9.067   9.398   8.800   8.873   8.231
     5.25    9.835  10.267  10.619   9.857  11.088  10.384  10.908  10.428  10.332   8.100   8.271   8.839   8.616   8.771   8.703

   Height   Standard deviation at grid points for the v component:
   294.75    7.965   7.965   7.965   7.965   7.965   7.965   7.965   7.965   7.965   7.965   7.965   7.965   7.965   7.965   7.965
   274.07    7.965   7.965   7.965   7.965   7.965   7.965   7.965   7.965   7.965   7.965   7.965   7.965   7.965   7.965   7.965
   253.39    7.965   7.965   7.965   7.965   7.965   7.965   7.965   7.965   7.965   7.965   7.965   7.965   7.965   7.965   7.965
   232.71    7.965   7.965   7.965   7.965   7.965   7.965   7.965   7.965   7.965   7.965   7.965   7.965   7.965   7.965   7.965
   212.04    7.965   7.965   7.965   7.965   7.965   7.965   7.965   7.965   7.965   7.965   7.965   7.965   7.965   7.965   7.965
   191.36    7.965   7.965   7.965   7.965   7.965   7.965   7.965   7.965   7.965   7.965   7.965   7.965   7.965   7.965   7.965
   170.68    7.965   7.965   7.965   7.965   7.965   7.965   7.965   7.965   7.965   7.965   7.965   7.965   7.965   7.965   7.965
   150.00    7.965   7.965   7.965   7.965   7.965   7.965   7.965   7.965   7.965   7.965   7.965   7.965   7.965   7.965   7.965
   129.32    7.965   7.965   7.965   7.965   7.965   7.965   7.965   7.965   7.965   7.965   7.965   7.965   7.965   7.965   7.965
   108.64    7.965   7.965   7.965   7.965   7.965   7.965   7.965   7.965   7.965   7.965   7.965   7.965   7.965   7.965   7.965
    87.96    7.965   7.965   7.965   7.965   7.965   7.965   7.965   7.965   7.965   7.965   7.965   7.965   7.965   7.965   7.965
    67.29    7.965   7.965   7.965   7.965   7.965   7.965   7.965   7.965   7.965   7.965   7.965   7.965   7.965   7.965   7.965
    46.61    7.965   7.965   7.965   7.965   7.965   7.965   7.965   7.965   7.965   7.965   7.965   7.965   7.965   7.965   7.965
    25.93    7.965   7.965   7.965   7.965   7.965   7.965   7.965   7.965   7.965   7.965   7.965   7.965   7.965   7.965   7.965
     5.25    7.965   7.965   7.965   7.965   7.965   7.965   7.965   7.965   7.965   7.965   7.965   7.965   7.965   7.965   7.965

   Height   Standard deviation at grid points for the w component:
   294.75    4.677   4.677   4.677   4.677   4.677   4.677   4.677   4.677   4.677   4.677   4.677   4.677   4.677   4.677   4.677
   274.07    4.677   4.677   4.677   4.677   4.677   4.677   4.677   4.677   4.677   4.677   4.677   4.677   4.677   4.677   4.677
   253.39    4.677   4.677   4.677   4.677   4.677   4.677   4.677   4.677   4.677   4.677   4.677   4.677   4.677   4.677   4.677
   232.71    4.677   4.677   4.677   4.677   4.677   4.677   4.677   4.677   4.677   4.677   4.677   4.677   4.677   4.677   4.677
   212.04    4.677   4.677   4.677   4.677   4.677   4.677   4.677   4.677   4.677   4.677   4.677   4.677   4.677   4.677   4.677
   191.36    4.677   4.677   4.677   4.677   4.677   4.677   4.677   4.677   4.677   4.677   4.677   4.677   4.677   4.677   4.677
   170.68    4.677   4.677   4.677   4.677   4.677   4.677   4.677   4.677   4.677   4.677   4.677   4.677   4.677   4.677   4.677
   150.00    4.677   4.677   4.677   4.677   4.677   4.677   4.677   4.677   4.677   4.677   4.677   4.677   4.677   4.677   4.677
   129.32    4.677   4.677   4.677   4.677   4.677   4.677   4.677   4.677   4.677   4.677   4.677   4.677   4.677   4.677   4.677
   108.64    4.677   4.677   4.677   4.677   4.677   4.677   4.677   4.677   4.677   4.677   4.677   4.677   4.677   4.677   4.677
    87.96    4.677   4.677   4.677   4.677   4.677   4.677   4.677   4.677   4.677   4.677   4.677   4.677   4.677   4.677   4.677
    67.29    4.677   4.677   4.677   4.677   4.677   4.677   4.677   4.677   4.677   4.677   4.677   4.677   4.677   4.677   4.677
    46.61    4.677   4.677   4.677   4.677   4.677   4.677   4.677   4.677   4.677   4.677   4.677   4.677   4.677   4.677   4.677
    25.93    4.677   4.677   4.677   4.677   4.677   4.677   4.677   4.677   4.677   4.677   4.677   4.677   4.677   4.677   4.677
     5.25    4.677   4.677   4.677   4.677   4.677   4.677   4.677   4.677   4.677   4.677   4.677   4.677   4.677   4.677   4.677

   Mean standard deviation across all grid points:
      u component:    9.826 m/s
      v component:    7.965 m/s
      w component:    4.677 m/s


U-component (X) statistics from the interpolated hub point:

   Mean =  97.0000 m/s
   TI   =  11.0918 %


Processing complete.  8.4831 CPU seconds used.
