
This summary file was generated by TurbSim (from OpenFAST-v3.5.1-607-g88e18ed3) on 13-Dec-2024 at 13:58:41.


Runtime Options:

    929617  Random seed #1
    RANLUX  Type of random number generator
         F  Output binary HH turbulence parameters?
         F  Output formatted turbulence parameters?
         F  Output AeroDyn HH files?
         T  Output AeroDyn FF files?
         F  Output BLADED FF files?
         F  Output tower data?
         F  Output HAWC FF files?
         F  Output formatted FF files?
         T  Output coherent turbulence time step file?
 0 -  NONE  IEC turbulence models scaled to exact specified standard deviation


Turbine/Model Specifications:

        15  Vertical grid-point matrix dimension
        15  Horizontal grid-point matrix dimension
     0.100  Time step [seconds]
   800.000  Analysis time [seconds]
   800.000  Usable output time [seconds]
   150.000  Hub height [m]
   289.500  Grid height [m]
   350.000  Grid width [m]
     0.000  Vertical flow angle [degrees]
     0.000  Horizontal flow angle [degrees]


Meteorological Boundary Conditions:

    IECKAI  IEC Kaimal spectral model
         3  IEC standard: IEC 61400-3 Ed. 1: 2006
    11.000  Percent turbulence intensity, IEC 61400-3 Ed. 1: 2006
       NTM  IEC Normal Turbulence Model
       N/A  IEC Extreme Turbulence Model (ETM) "c" parameter [m/s]
       PL   Wind profile type
   150.000  Reference height [m]
     9.000  Reference wind speed [m/s]
       N/A  Jet height [m]
     0.120  Power law exponent
     0.030  Surface roughness length [m]


Non-IEC Meteorological Boundary Conditions:

       N/A  Site latitude [degrees]
       N/A  Gradient Richardson number
       N/A  Friction or shear velocity [m/s]
       N/A  Mixing layer depth [m]
       N/A  Mean hub u'w' Reynolds stress
       N/A  Mean hub u'v' Reynolds stress
       N/A  Mean hub v'w' Reynolds stress


Spatial Coherence Models:

       IEC  u-component coherence model
      NONE  v-component coherence model
      NONE  w-component coherence model
(   12.000, 0.353E-03)  u-component coherence parameters
                   N/A  v-component coherence parameters
                   N/A  w-component coherence parameters
       N/A  Coherence exponent


You have requested that the following file(s) be generated:

   Turbsim_Vhub_9_seednum_929617.Turbsim.bts (AeroDyn/TurbSim full-field wind file)


Turbulence Simulation Scaling Parameter Summary:

   Turbulence model used                            =  IEC Kaimal
   Turbulence characteristic                        =  User-specified
   IEC standard                                     =  IEC 61400-3 Ed. 1: 2006
   Mean wind speed at hub height                    =    9.000 m/s
   Characteristic value of standard deviation       =    0.990 m/s
   Turbulence scale                                 =   42.000 m
   u-component integral scale                       =  340.200 m
   Coherency scale                                  =  340.200 m
   Characteristic value of hub turbulence intensity =   11.000%
   Gradient Richardson number                       =    0.000

   Wind profile type                                =  Power law
   Power law exponent                               =    0.120
   Mean shear across rotor disk                     =    0.013 (m/s)/m
   Assumed rotor diameter                           =  289.500 m
   Surface roughness length                         =    0.030 m

   Nyquist frequency of turbulent wind field        =    5.000 Hz

   Number of time steps in the FFT                  =     8000
   Number of time steps output                      =     8000
   Number of points simulated                       =      225


Mean Flow Angles:

   Vertical   =   0.0 degrees
   Horizontal =   0.0 degrees

Mean Wind Speed Profile:

   Height    Wind Speed   Horizontal Angle  Vertical Angle  U-comp (X)   V-comp (Y)   W-comp (Z)
     (m)        (m/s)         (degrees)       (degrees)       (m/s)        (m/s)        (m/s)   
   ------    ----------   ----------------  --------------  ----------   ----------   ----------
    294.8        9.76            0.00            0.00          9.76         0.00         0.00
    274.1        9.68            0.00            0.00          9.68         0.00         0.00
    253.4        9.58            0.00            0.00          9.58         0.00         0.00
    232.7        9.49            0.00            0.00          9.49         0.00         0.00
    212.0        9.38            0.00            0.00          9.38         0.00         0.00
    191.4        9.27            0.00            0.00          9.27         0.00         0.00
    170.7        9.14            0.00            0.00          9.14         0.00         0.00
    150.0        9.00            0.00            0.00          9.00         0.00         0.00
    129.3        8.84            0.00            0.00          8.84         0.00         0.00
    108.6        8.66            0.00            0.00          8.66         0.00         0.00
     88.0        8.44            0.00            0.00          8.44         0.00         0.00
     67.3        8.17            0.00            0.00          8.17         0.00         0.00
     46.6        7.82            0.00            0.00          7.82         0.00         0.00
     25.9        7.29            0.00            0.00          7.29         0.00         0.00
      5.2        6.02            0.00            0.00          6.02         0.00         0.00


Harvested Random Seeds after Generation of the Random Numbers:

     25087500 K 1
            0 K 2


Hub-Height Simulated Turbulence Statistical Summary:

   Type of Wind        Min (m/s)   Mean (m/s)    Max (m/s)  Sigma (m/s)       TI (%)
   ----------------    ---------   ----------    ---------  -----------       ------
   Longitudinal (u)         6.01         9.00        12.64        1.128       12.529
   Lateral (v)             -2.53        -0.00         2.57        0.772        8.578
   Vertical (w)            -1.66         0.00         1.77        0.481        5.343
   U component              6.01         9.00        12.64        1.128       12.529
   V component             -2.53        -0.00         2.57        0.772        8.578
   W component             -1.66         0.00         1.77        0.481        5.343
   Horizontal (U&V)         6.06         9.03        12.66        1.126       12.460
   Total                    6.06         9.05        12.66        1.124       12.421

                       Min Reynolds     Mean Reynolds    Max Reynolds    Correlation
   Product             Stress (m/s)^2   Stress (m/s)^2   Stress (m/s)^2  Coefficient
   ----------------    --------------   --------------   --------------  -----------
   u'w'                     -4.170             0.036             4.470         0.067
   u'v'                     -5.791            -0.180             3.885        -0.207
   v'w'                     -2.274             0.030             3.764         0.082


   Friction Velocity (Ustar)  =      0.190 m/s
   Maximum Instantaneous TKE  =      7.473 (m/s)^2
   Maximum Instantaneous CTKE =      3.468 (m/s)^2


Grid Point Variance Summary:

   Y-coord -175.00 -150.00 -125.00 -100.00  -75.00  -50.00  -25.00    0.00   25.00   50.00   75.00  100.00  125.00  150.00  175.00

   Height   Standard deviation at grid points for the u component:
   294.75    1.126   1.219   1.195   1.100   1.029   1.096   1.136   1.143   1.059   1.098   0.968   0.978   0.996   1.144   1.149
   274.07    1.157   1.158   1.045   0.943   1.010   1.058   1.058   1.106   1.097   1.111   1.036   1.026   1.032   1.042   1.012
   253.39    1.061   1.049   1.008   0.910   0.978   1.078   1.068   1.054   0.997   1.012   1.012   0.908   0.912   1.033   0.947
   232.71    0.952   0.962   0.962   1.077   1.063   0.978   1.075   1.014   0.896   0.936   0.872   0.887   0.922   0.990   0.946
   212.04    1.023   0.928   1.049   1.046   1.013   0.997   1.074   1.063   0.992   0.793   0.895   0.928   0.837   0.937   0.880
   191.36    0.926   0.832   0.928   1.100   1.033   1.059   0.984   1.005   0.984   0.869   0.902   1.045   0.909   0.957   0.960
   170.68    0.944   0.914   0.884   1.034   1.023   1.107   1.054   1.060   1.140   0.991   1.129   1.028   1.020   1.020   1.072
   150.00    1.003   0.941   0.874   1.133   1.098   1.079   1.117   1.128   1.116   1.149   1.161   1.112   0.978   0.918   1.061
   129.32    0.998   0.908   1.025   1.114   1.103   1.049   1.013   1.114   1.213   1.063   1.062   0.976   0.983   1.012   0.928
   108.64    0.969   0.889   0.999   1.049   0.966   1.031   0.957   1.047   1.099   1.034   0.919   0.952   1.031   0.949   0.856
    87.96    0.890   0.932   0.904   0.985   0.950   0.951   0.937   0.926   0.981   0.960   0.941   0.849   0.941   0.883   0.918
    67.29    0.942   1.029   0.973   0.888   0.890   0.947   0.968   1.018   0.984   0.867   0.923   0.901   0.956   0.912   0.891
    46.61    0.872   0.907   0.923   0.899   0.880   0.919   0.903   0.937   0.934   0.873   0.860   0.895   0.979   0.888   0.748
    25.93    0.928   0.861   0.776   0.852   0.801   0.930   0.759   0.886   0.828   0.895   0.885   0.860   0.900   0.990   0.841
     5.25    0.941   0.808   0.844   0.845   0.837   0.909   0.815   0.853   0.929   0.821   0.848   0.885   0.905   0.919   0.858

   Height   Standard deviation at grid points for the v component:
   294.75    0.772   0.772   0.772   0.772   0.772   0.772   0.772   0.772   0.772   0.772   0.772   0.772   0.772   0.772   0.772
   274.07    0.772   0.772   0.772   0.772   0.772   0.772   0.772   0.772   0.772   0.772   0.772   0.772   0.772   0.772   0.772
   253.39    0.772   0.772   0.772   0.772   0.772   0.772   0.772   0.772   0.772   0.772   0.772   0.772   0.772   0.772   0.772
   232.71    0.772   0.772   0.772   0.772   0.772   0.772   0.772   0.772   0.772   0.772   0.772   0.772   0.772   0.772   0.772
   212.04    0.772   0.772   0.772   0.772   0.772   0.772   0.772   0.772   0.772   0.772   0.772   0.772   0.772   0.772   0.772
   191.36    0.772   0.772   0.772   0.772   0.772   0.772   0.772   0.772   0.772   0.772   0.772   0.772   0.772   0.772   0.772
   170.68    0.772   0.772   0.772   0.772   0.772   0.772   0.772   0.772   0.772   0.772   0.772   0.772   0.772   0.772   0.772
   150.00    0.772   0.772   0.772   0.772   0.772   0.772   0.772   0.772   0.772   0.772   0.772   0.772   0.772   0.772   0.772
   129.32    0.772   0.772   0.772   0.772   0.772   0.772   0.772   0.772   0.772   0.772   0.772   0.772   0.772   0.772   0.772
   108.64    0.772   0.772   0.772   0.772   0.772   0.772   0.772   0.772   0.772   0.772   0.772   0.772   0.772   0.772   0.772
    87.96    0.772   0.772   0.772   0.772   0.772   0.772   0.772   0.772   0.772   0.772   0.772   0.772   0.772   0.772   0.772
    67.29    0.772   0.772   0.772   0.772   0.772   0.772   0.772   0.772   0.772   0.772   0.772   0.772   0.772   0.772   0.772
    46.61    0.772   0.772   0.772   0.772   0.772   0.772   0.772   0.772   0.772   0.772   0.772   0.772   0.772   0.772   0.772
    25.93    0.772   0.772   0.772   0.772   0.772   0.772   0.772   0.772   0.772   0.772   0.772   0.772   0.772   0.772   0.772
     5.25    0.772   0.772   0.772   0.772   0.772   0.772   0.772   0.772   0.772   0.772   0.772   0.772   0.772   0.772   0.772

   Height   Standard deviation at grid points for the w component:
   294.75    0.481   0.481   0.481   0.481   0.481   0.481   0.481   0.481   0.481   0.481   0.481   0.481   0.481   0.481   0.481
   274.07    0.481   0.481   0.481   0.481   0.481   0.481   0.481   0.481   0.481   0.481   0.481   0.481   0.481   0.481   0.481
   253.39    0.481   0.481   0.481   0.481   0.481   0.481   0.481   0.481   0.481   0.481   0.481   0.481   0.481   0.481   0.481
   232.71    0.481   0.481   0.481   0.481   0.481   0.481   0.481   0.481   0.481   0.481   0.481   0.481   0.481   0.481   0.481
   212.04    0.481   0.481   0.481   0.481   0.481   0.481   0.481   0.481   0.481   0.481   0.481   0.481   0.481   0.481   0.481
   191.36    0.481   0.481   0.481   0.481   0.481   0.481   0.481   0.481   0.481   0.481   0.481   0.481   0.481   0.481   0.481
   170.68    0.481   0.481   0.481   0.481   0.481   0.481   0.481   0.481   0.481   0.481   0.481   0.481   0.481   0.481   0.481
   150.00    0.481   0.481   0.481   0.481   0.481   0.481   0.481   0.481   0.481   0.481   0.481   0.481   0.481   0.481   0.481
   129.32    0.481   0.481   0.481   0.481   0.481   0.481   0.481   0.481   0.481   0.481   0.481   0.481   0.481   0.481   0.481
   108.64    0.481   0.481   0.481   0.481   0.481   0.481   0.481   0.481   0.481   0.481   0.481   0.481   0.481   0.481   0.481
    87.96    0.481   0.481   0.481   0.481   0.481   0.481   0.481   0.481   0.481   0.481   0.481   0.481   0.481   0.481   0.481
    67.29    0.481   0.481   0.481   0.481   0.481   0.481   0.481   0.481   0.481   0.481   0.481   0.481   0.481   0.481   0.481
    46.61    0.481   0.481   0.481   0.481   0.481   0.481   0.481   0.481   0.481   0.481   0.481   0.481   0.481   0.481   0.481
    25.93    0.481   0.481   0.481   0.481   0.481   0.481   0.481   0.481   0.481   0.481   0.481   0.481   0.481   0.481   0.481
     5.25    0.481   0.481   0.481   0.481   0.481   0.481   0.481   0.481   0.481   0.481   0.481   0.481   0.481   0.481   0.481

   Mean standard deviation across all grid points:
      u component:    0.977 m/s
      v component:    0.772 m/s
      w component:    0.481 m/s


U-component (X) statistics from the interpolated hub point:

   Mean =   9.0000 m/s
   TI   =  12.5293 %


Processing complete.  138.87 CPU seconds used.
