
This summary file was generated by TurbSim (from OpenFAST-v3.5.1-607-g88e18ed3) on 14-Dec-2024 at 20:01:09.


Runtime Options:

    656411  Random seed #1
    RANLUX  Type of random number generator
         F  Output binary HH turbulence parameters?
         F  Output formatted turbulence parameters?
         F  Output AeroDyn HH files?
         T  Output AeroDyn FF files?
         F  Output BLADED FF files?
         F  Output tower data?
         F  Output HAWC FF files?
         F  Output formatted FF files?
         T  Output coherent turbulence time step file?
 0 -  NONE  IEC turbulence models scaled to exact specified standard deviation


Turbine/Model Specifications:

        15  Vertical grid-point matrix dimension
        15  Horizontal grid-point matrix dimension
     0.100  Time step [seconds]
    60.000  Analysis time [seconds]
    60.000  Usable output time [seconds]
   150.000  Hub height [m]
   289.500  Grid height [m]
   350.000  Grid width [m]
     0.000  Vertical flow angle [degrees]
     0.000  Horizontal flow angle [degrees]


Meteorological Boundary Conditions:

    IECKAI  IEC Kaimal spectral model
         3  IEC standard: IEC 61400-3 Ed. 1: 2006
    11.000  Percent turbulence intensity, IEC 61400-3 Ed. 1: 2006
       NTM  IEC Normal Turbulence Model
       N/A  IEC Extreme Turbulence Model (ETM) "c" parameter [m/s]
       PL   Wind profile type
   150.000  Reference height [m]
    49.000  Reference wind speed [m/s]
       N/A  Jet height [m]
     0.120  Power law exponent
     0.030  Surface roughness length [m]


Non-IEC Meteorological Boundary Conditions:

       N/A  Site latitude [degrees]
       N/A  Gradient Richardson number
       N/A  Friction or shear velocity [m/s]
       N/A  Mixing layer depth [m]
       N/A  Mean hub u'w' Reynolds stress
       N/A  Mean hub u'v' Reynolds stress
       N/A  Mean hub v'w' Reynolds stress


Spatial Coherence Models:

       IEC  u-component coherence model
      NONE  v-component coherence model
      NONE  w-component coherence model
(   12.000, 0.353E-03)  u-component coherence parameters
                   N/A  v-component coherence parameters
                   N/A  w-component coherence parameters
       N/A  Coherence exponent


You have requested that the following file(s) be generated:

   Turbsim_Vhub_49_seednum_656411.Turbsim.bts (AeroDyn/TurbSim full-field wind file)


Turbulence Simulation Scaling Parameter Summary:

   Turbulence model used                            =  IEC Kaimal
   Turbulence characteristic                        =  User-specified
   IEC standard                                     =  IEC 61400-3 Ed. 1: 2006
   Mean wind speed at hub height                    =   49.000 m/s
   Characteristic value of standard deviation       =    5.390 m/s
   Turbulence scale                                 =   42.000 m
   u-component integral scale                       =  340.200 m
   Coherency scale                                  =  340.200 m
   Characteristic value of hub turbulence intensity =   11.000%
   Gradient Richardson number                       =    0.000

   Wind profile type                                =  Power law
   Power law exponent                               =    0.120
   Mean shear across rotor disk                     =    0.070 (m/s)/m
   Assumed rotor diameter                           =  289.500 m
   Surface roughness length                         =    0.030 m

   Nyquist frequency of turbulent wind field        =    5.000 Hz

   Number of time steps in the FFT                  =      600
   Number of time steps output                      =      600
   Number of points simulated                       =      225


Mean Flow Angles:

   Vertical   =   0.0 degrees
   Horizontal =   0.0 degrees

Mean Wind Speed Profile:

   Height    Wind Speed   Horizontal Angle  Vertical Angle  U-comp (X)   V-comp (Y)   W-comp (Z)
     (m)        (m/s)         (degrees)       (degrees)       (m/s)        (m/s)        (m/s)   
   ------    ----------   ----------------  --------------  ----------   ----------   ----------
    294.8       53.14            0.00            0.00         53.14         0.00         0.00
    274.1       52.68            0.00            0.00         52.68         0.00         0.00
    253.4       52.18            0.00            0.00         52.18         0.00         0.00
    232.7       51.65            0.00            0.00         51.65         0.00         0.00
    212.0       51.08            0.00            0.00         51.08         0.00         0.00
    191.4       50.45            0.00            0.00         50.45         0.00         0.00
    170.7       49.77            0.00            0.00         49.77         0.00         0.00
    150.0       49.00            0.00            0.00         49.00         0.00         0.00
    129.3       48.14            0.00            0.00         48.14         0.00         0.00
    108.6       47.14            0.00            0.00         47.14         0.00         0.00
     88.0       45.96            0.00            0.00         45.96         0.00         0.00
     67.3       44.51            0.00            0.00         44.51         0.00         0.00
     46.6       42.59            0.00            0.00         42.59         0.00         0.00
     25.9       39.69            0.00            0.00         39.69         0.00         0.00
      5.2       32.77            0.00            0.00         32.77         0.00         0.00


Harvested Random Seeds after Generation of the Random Numbers:

      1881463 K 1
            0 K 2


Hub-Height Simulated Turbulence Statistical Summary:

   Type of Wind        Min (m/s)   Mean (m/s)    Max (m/s)  Sigma (m/s)       TI (%)
   ----------------    ---------   ----------    ---------  -----------       ------
   Longitudinal (u)        32.93        49.00        61.47        4.822        9.841
   Lateral (v)            -12.03         0.00        11.98        4.020        8.204
   Vertical (w)            -8.52         0.00         7.84        2.463        5.027
   U component             32.93        49.00        61.47        4.822        9.841
   V component            -12.03         0.00        11.98        4.020        8.204
   W component             -8.52         0.00         7.84        2.463        5.027
   Horizontal (U&V)        32.98        49.17        61.79        4.812        9.787
   Total                   33.35        49.23        61.82        4.806        9.763

                       Min Reynolds     Mean Reynolds    Max Reynolds    Correlation
   Product             Stress (m/s)^2   Stress (m/s)^2   Stress (m/s)^2  Coefficient
   ----------------    --------------   --------------   --------------  -----------
   u'w'                    -82.079            -0.241            61.205        -0.020
   u'v'                    -84.496            -4.271            60.904        -0.220
   v'w'                    -43.740             0.290            33.530         0.029


   Friction Velocity (Ustar)  =      0.491 m/s
   Maximum Instantaneous TKE  =    143.149 (m/s)^2
   Maximum Instantaneous CTKE =     49.592 (m/s)^2


Grid Point Variance Summary:

   Y-coord -175.00 -150.00 -125.00 -100.00  -75.00  -50.00  -25.00    0.00   25.00   50.00   75.00  100.00  125.00  150.00  175.00

   Height   Standard deviation at grid points for the u component:
   294.75    5.132   5.584   4.898   5.207   5.051   4.881   4.460   5.549   6.942   7.750   7.054   6.701   5.997   5.766   5.597
   274.07    5.551   4.990   5.492   5.113   4.969   4.453   5.032   5.008   6.199   7.304   6.844   6.708   6.304   5.503   5.539
   253.39    5.378   4.678   4.808   5.331   4.925   3.950   4.643   5.192   5.900   6.677   6.336   5.644   6.234   6.285   5.056
   232.71    4.630   4.737   5.510   5.247   5.034   4.467   4.600   5.712   6.656   6.359   6.131   5.884   6.261   5.618   4.600
   212.04    5.204   5.513   5.838   4.861   4.373   4.637   4.782   5.070   6.223   6.281   5.465   5.576   5.744   5.371   5.479
   191.36    4.366   4.396   4.776   4.495   5.383   4.588   4.898   5.790   5.817   6.035   5.938   4.627   5.693   6.470   5.383
   170.68    4.523   3.834   3.883   3.529   4.363   5.128   4.620   5.319   5.850   5.588   5.313   5.277   6.091   5.847   5.680
   150.00    4.557   3.441   4.033   3.820   4.232   4.555   4.019   4.822   4.966   4.779   5.677   5.789   5.325   5.255   5.186
   129.32    4.705   4.013   4.081   4.437   4.330   3.784   4.120   4.151   4.657   4.407   5.749   6.137   5.778   6.088   5.372
   108.64    5.516   4.814   4.297   4.087   4.917   3.866   3.939   4.702   5.227   4.708   5.191   5.101   5.282   5.580   5.656
    87.96    5.578   4.181   3.905   4.469   4.827   4.498   3.508   4.744   5.251   4.948   4.613   4.670   4.364   4.705   5.486
    67.29    5.312   4.309   4.563   4.414   4.800   4.507   4.932   4.707   4.592   5.279   5.153   4.272   4.851   4.463   5.166
    46.61    4.456   4.956   4.211   4.139   4.183   3.932   4.965   4.970   4.139   4.266   5.429   4.916   4.763   4.543   4.521
    25.93    4.356   4.490   4.160   3.765   3.917   3.529   4.224   4.499   4.439   4.635   5.376   5.239   4.460   4.097   4.107
     5.25    4.766   4.264   4.325   4.603   4.075   3.777   3.809   4.393   4.807   4.823   4.240   4.650   4.031   4.165   4.524

   Height   Standard deviation at grid points for the v component:
   294.75    4.020   4.020   4.020   4.020   4.020   4.020   4.020   4.020   4.020   4.020   4.020   4.020   4.020   4.020   4.020
   274.07    4.020   4.020   4.020   4.020   4.020   4.020   4.020   4.020   4.020   4.020   4.020   4.020   4.020   4.020   4.020
   253.39    4.020   4.020   4.020   4.020   4.020   4.020   4.020   4.020   4.020   4.020   4.020   4.020   4.020   4.020   4.020
   232.71    4.020   4.020   4.020   4.020   4.020   4.020   4.020   4.020   4.020   4.020   4.020   4.020   4.020   4.020   4.020
   212.04    4.020   4.020   4.020   4.020   4.020   4.020   4.020   4.020   4.020   4.020   4.020   4.020   4.020   4.020   4.020
   191.36    4.020   4.020   4.020   4.020   4.020   4.020   4.020   4.020   4.020   4.020   4.020   4.020   4.020   4.020   4.020
   170.68    4.020   4.020   4.020   4.020   4.020   4.020   4.020   4.020   4.020   4.020   4.020   4.020   4.020   4.020   4.020
   150.00    4.020   4.020   4.020   4.020   4.020   4.020   4.020   4.020   4.020   4.020   4.020   4.020   4.020   4.020   4.020
   129.32    4.020   4.020   4.020   4.020   4.020   4.020   4.020   4.020   4.020   4.020   4.020   4.020   4.020   4.020   4.020
   108.64    4.020   4.020   4.020   4.020   4.020   4.020   4.020   4.020   4.020   4.020   4.020   4.020   4.020   4.020   4.020
    87.96    4.020   4.020   4.020   4.020   4.020   4.020   4.020   4.020   4.020   4.020   4.020   4.020   4.020   4.020   4.020
    67.29    4.020   4.020   4.020   4.020   4.020   4.020   4.020   4.020   4.020   4.020   4.020   4.020   4.020   4.020   4.020
    46.61    4.020   4.020   4.020   4.020   4.020   4.020   4.020   4.020   4.020   4.020   4.020   4.020   4.020   4.020   4.020
    25.93    4.020   4.020   4.020   4.020   4.020   4.020   4.020   4.020   4.020   4.020   4.020   4.020   4.020   4.020   4.020
     5.25    4.020   4.020   4.020   4.020   4.020   4.020   4.020   4.020   4.020   4.020   4.020   4.020   4.020   4.020   4.020

   Height   Standard deviation at grid points for the w component:
   294.75    2.463   2.463   2.463   2.463   2.463   2.463   2.463   2.463   2.463   2.463   2.463   2.463   2.463   2.463   2.463
   274.07    2.463   2.463   2.463   2.463   2.463   2.463   2.463   2.463   2.463   2.463   2.463   2.463   2.463   2.463   2.463
   253.39    2.463   2.463   2.463   2.463   2.463   2.463   2.463   2.463   2.463   2.463   2.463   2.463   2.463   2.463   2.463
   232.71    2.463   2.463   2.463   2.463   2.463   2.463   2.463   2.463   2.463   2.463   2.463   2.463   2.463   2.463   2.463
   212.04    2.463   2.463   2.463   2.463   2.463   2.463   2.463   2.463   2.463   2.463   2.463   2.463   2.463   2.463   2.463
   191.36    2.463   2.463   2.463   2.463   2.463   2.463   2.463   2.463   2.463   2.463   2.463   2.463   2.463   2.463   2.463
   170.68    2.463   2.463   2.463   2.463   2.463   2.463   2.463   2.463   2.463   2.463   2.463   2.463   2.463   2.463   2.463
   150.00    2.463   2.463   2.463   2.463   2.463   2.463   2.463   2.463   2.463   2.463   2.463   2.463   2.463   2.463   2.463
   129.32    2.463   2.463   2.463   2.463   2.463   2.463   2.463   2.463   2.463   2.463   2.463   2.463   2.463   2.463   2.463
   108.64    2.463   2.463   2.463   2.463   2.463   2.463   2.463   2.463   2.463   2.463   2.463   2.463   2.463   2.463   2.463
    87.96    2.463   2.463   2.463   2.463   2.463   2.463   2.463   2.463   2.463   2.463   2.463   2.463   2.463   2.463   2.463
    67.29    2.463   2.463   2.463   2.463   2.463   2.463   2.463   2.463   2.463   2.463   2.463   2.463   2.463   2.463   2.463
    46.61    2.463   2.463   2.463   2.463   2.463   2.463   2.463   2.463   2.463   2.463   2.463   2.463   2.463   2.463   2.463
    25.93    2.463   2.463   2.463   2.463   2.463   2.463   2.463   2.463   2.463   2.463   2.463   2.463   2.463   2.463   2.463
     5.25    2.463   2.463   2.463   2.463   2.463   2.463   2.463   2.463   2.463   2.463   2.463   2.463   2.463   2.463   2.463

   Mean standard deviation across all grid points:
      u component:    4.992 m/s
      v component:    4.020 m/s
      w component:    2.463 m/s


U-component (X) statistics from the interpolated hub point:

   Mean =  49.0000 m/s
   TI   =   9.8408 %


Processing complete.  8.7431 CPU seconds used.
