
This summary file was generated by TurbSim (from OpenFAST-v3.5.1-607-g88e18ed3) on 14-Dec-2024 at 20:01:57.


Runtime Options:

    653570  Random seed #1
    RANLUX  Type of random number generator
         F  Output binary HH turbulence parameters?
         F  Output formatted turbulence parameters?
         F  Output AeroDyn HH files?
         T  Output AeroDyn FF files?
         F  Output BLADED FF files?
         F  Output tower data?
         F  Output HAWC FF files?
         F  Output formatted FF files?
         T  Output coherent turbulence time step file?
 0 -  NONE  IEC turbulence models scaled to exact specified standard deviation


Turbine/Model Specifications:

        15  Vertical grid-point matrix dimension
        15  Horizontal grid-point matrix dimension
     0.100  Time step [seconds]
    60.000  Analysis time [seconds]
    60.000  Usable output time [seconds]
   150.000  Hub height [m]
   289.500  Grid height [m]
   350.000  Grid width [m]
     0.000  Vertical flow angle [degrees]
     0.000  Horizontal flow angle [degrees]


Meteorological Boundary Conditions:

    IECKAI  IEC Kaimal spectral model
         3  IEC standard: IEC 61400-3 Ed. 1: 2006
    11.000  Percent turbulence intensity, IEC 61400-3 Ed. 1: 2006
       NTM  IEC Normal Turbulence Model
       N/A  IEC Extreme Turbulence Model (ETM) "c" parameter [m/s]
       PL   Wind profile type
   150.000  Reference height [m]
    81.000  Reference wind speed [m/s]
       N/A  Jet height [m]
     0.120  Power law exponent
     0.030  Surface roughness length [m]


Non-IEC Meteorological Boundary Conditions:

       N/A  Site latitude [degrees]
       N/A  Gradient Richardson number
       N/A  Friction or shear velocity [m/s]
       N/A  Mixing layer depth [m]
       N/A  Mean hub u'w' Reynolds stress
       N/A  Mean hub u'v' Reynolds stress
       N/A  Mean hub v'w' Reynolds stress


Spatial Coherence Models:

       IEC  u-component coherence model
      NONE  v-component coherence model
      NONE  w-component coherence model
(   12.000, 0.353E-03)  u-component coherence parameters
                   N/A  v-component coherence parameters
                   N/A  w-component coherence parameters
       N/A  Coherence exponent


You have requested that the following file(s) be generated:

   Turbsim_Vhub_81_seednum_653570.Turbsim.bts (AeroDyn/TurbSim full-field wind file)


Turbulence Simulation Scaling Parameter Summary:

   Turbulence model used                            =  IEC Kaimal
   Turbulence characteristic                        =  User-specified
   IEC standard                                     =  IEC 61400-3 Ed. 1: 2006
   Mean wind speed at hub height                    =   81.000 m/s
   Characteristic value of standard deviation       =    8.910 m/s
   Turbulence scale                                 =   42.000 m
   u-component integral scale                       =  340.200 m
   Coherency scale                                  =  340.200 m
   Characteristic value of hub turbulence intensity =   11.000%
   Gradient Richardson number                       =    0.000

   Wind profile type                                =  Power law
   Power law exponent                               =    0.120
   Mean shear across rotor disk                     =    0.116 (m/s)/m
   Assumed rotor diameter                           =  289.500 m
   Surface roughness length                         =    0.030 m

   Nyquist frequency of turbulent wind field        =    5.000 Hz

   Number of time steps in the FFT                  =      600
   Number of time steps output                      =      600
   Number of points simulated                       =      225


Mean Flow Angles:

   Vertical   =   0.0 degrees
   Horizontal =   0.0 degrees

Mean Wind Speed Profile:

   Height    Wind Speed   Horizontal Angle  Vertical Angle  U-comp (X)   V-comp (Y)   W-comp (Z)
     (m)        (m/s)         (degrees)       (degrees)       (m/s)        (m/s)        (m/s)   
   ------    ----------   ----------------  --------------  ----------   ----------   ----------
    294.8       87.84            0.00            0.00         87.84         0.00         0.00
    274.1       87.08            0.00            0.00         87.08         0.00         0.00
    253.4       86.26            0.00            0.00         86.26         0.00         0.00
    232.7       85.38            0.00            0.00         85.38         0.00         0.00
    212.0       84.44            0.00            0.00         84.44         0.00         0.00
    191.4       83.40            0.00            0.00         83.40         0.00         0.00
    170.7       82.27            0.00            0.00         82.27         0.00         0.00
    150.0       81.00            0.00            0.00         81.00         0.00         0.00
    129.3       79.57            0.00            0.00         79.57         0.00         0.00
    108.6       77.92            0.00            0.00         77.92         0.00         0.00
     88.0       75.98            0.00            0.00         75.98         0.00         0.00
     67.3       73.57            0.00            0.00         73.57         0.00         0.00
     46.6       70.40            0.00            0.00         70.40         0.00         0.00
     25.9       65.62            0.00            0.00         65.62         0.00         0.00
      5.2       54.17            0.00            0.00         54.17         0.00         0.00


Harvested Random Seeds after Generation of the Random Numbers:

      1881463 K 1
            0 K 2


Hub-Height Simulated Turbulence Statistical Summary:

   Type of Wind        Min (m/s)   Mean (m/s)    Max (m/s)  Sigma (m/s)       TI (%)
   ----------------    ---------   ----------    ---------  -----------       ------
   Longitudinal (u)        58.32        81.00       103.31        7.435        9.179
   Lateral (v)            -15.93         0.00        22.53        6.662        8.225
   Vertical (w)           -12.12         0.00        10.97        3.958        4.887
   U component             58.32        81.00       103.31        7.435        9.179
   V component            -15.93         0.00        22.53        6.662        8.225
   W component            -12.12         0.00        10.97        3.958        4.887
   Horizontal (U&V)        58.42        81.28       103.46        7.406        9.112
   Total                   58.67        81.37       104.01        7.407        9.103

                       Min Reynolds     Mean Reynolds    Max Reynolds    Correlation
   Product             Stress (m/s)^2   Stress (m/s)^2   Stress (m/s)^2  Coefficient
   ----------------    --------------   --------------   --------------  -----------
   u'w'                   -146.524            -0.433           238.834        -0.015
   u'v'                   -232.433             1.491           261.359         0.030
   v'w'                   -194.758            -1.150           105.430        -0.044


   Friction Velocity (Ustar)  =      0.658 m/s
   Maximum Instantaneous TKE  =    321.540 (m/s)^2
   Maximum Instantaneous CTKE =    141.388 (m/s)^2


Grid Point Variance Summary:

   Y-coord -175.00 -150.00 -125.00 -100.00  -75.00  -50.00  -25.00    0.00   25.00   50.00   75.00  100.00  125.00  150.00  175.00

   Height   Standard deviation at grid points for the u component:
   294.75    5.893   7.388   9.599   9.761   9.715   9.934  10.025   9.785  10.033   8.301   9.275   9.616   8.652   8.690   8.008
   274.07    7.208   7.718   9.082   9.370   8.673   8.055   8.278   9.368   8.289   8.940   9.318   8.746   8.413   8.560   7.007
   253.39    8.603   8.256   8.328   8.396   8.868   8.016   6.888   7.663   7.786   9.010   8.732   7.924   7.994   6.728   7.498
   232.71    9.905   8.422   7.978   6.764   7.110   8.045   7.552   8.195   8.350   8.800   7.789   7.121   7.323   7.364   7.106
   212.04    9.228   8.607   6.413   6.882   5.922   6.481   7.209   7.776   8.073   8.372   6.696   7.499   8.196   8.401   7.973
   191.36    8.161   7.779   6.515   7.163   6.482   7.726   7.889   7.742   8.310   7.508   6.601   7.453   7.480   7.816   8.298
   170.68    7.846   8.591   7.068   5.934   7.616   7.218   7.618   7.972   8.429   7.739   7.624   7.421   8.011   7.630   7.786
   150.00    6.850   7.732   6.548   6.440   7.578   7.906   7.844   7.435   6.759   8.013   7.541   7.785   7.202   7.422   7.935
   129.32    5.548   6.343   6.809   7.326   7.193   8.282   7.660   7.429   8.819   7.518   8.206   7.533   6.614   6.798   7.273
   108.64    6.140   6.748   6.161   6.463   7.493   7.748   7.878   7.945   8.175   7.386   8.051   7.583   7.063   6.275   7.149
    87.96    7.207   6.711   7.479   6.704   6.140   7.188   7.931   8.059   7.614   7.990   8.179   8.111   7.300   7.380   6.928
    67.29    7.082   6.863   7.293   6.556   7.173   7.141   7.235   7.043   8.278   8.432   7.989   7.597   7.895   7.796   7.345
    46.61    7.657   8.492   7.255   7.937   6.978   7.360   6.658   7.328   7.808   6.919   7.821   8.508   7.302   7.718   7.734
    25.93    7.724   7.701   6.563   8.288   8.063   7.222   5.864   6.481   6.755   6.432   8.151   8.723   8.207   7.504   7.419
     5.25    8.148   7.405   7.445   8.491   6.998   7.674   7.281   6.453   6.322   6.855   8.158   8.952   8.054   8.138   7.591

   Height   Standard deviation at grid points for the v component:
   294.75    6.662   6.662   6.662   6.662   6.662   6.662   6.662   6.662   6.662   6.662   6.662   6.662   6.662   6.662   6.662
   274.07    6.662   6.662   6.662   6.662   6.662   6.662   6.662   6.662   6.662   6.662   6.662   6.662   6.662   6.662   6.662
   253.39    6.662   6.662   6.662   6.662   6.662   6.662   6.662   6.662   6.662   6.662   6.662   6.662   6.662   6.662   6.662
   232.71    6.662   6.662   6.662   6.662   6.662   6.662   6.662   6.662   6.662   6.662   6.662   6.662   6.662   6.662   6.662
   212.04    6.662   6.662   6.662   6.662   6.662   6.662   6.662   6.662   6.662   6.662   6.662   6.662   6.662   6.662   6.662
   191.36    6.662   6.662   6.662   6.662   6.662   6.662   6.662   6.662   6.662   6.662   6.662   6.662   6.662   6.662   6.662
   170.68    6.662   6.662   6.662   6.662   6.662   6.662   6.662   6.662   6.662   6.662   6.662   6.662   6.662   6.662   6.662
   150.00    6.662   6.662   6.662   6.662   6.662   6.662   6.662   6.662   6.662   6.662   6.662   6.662   6.662   6.662   6.662
   129.32    6.662   6.662   6.662   6.662   6.662   6.662   6.662   6.662   6.662   6.662   6.662   6.662   6.662   6.662   6.662
   108.64    6.662   6.662   6.662   6.662   6.662   6.662   6.662   6.662   6.662   6.662   6.662   6.662   6.662   6.662   6.662
    87.96    6.662   6.662   6.662   6.662   6.662   6.662   6.662   6.662   6.662   6.662   6.662   6.662   6.662   6.662   6.662
    67.29    6.662   6.662   6.662   6.662   6.662   6.662   6.662   6.662   6.662   6.662   6.662   6.662   6.662   6.662   6.662
    46.61    6.662   6.662   6.662   6.662   6.662   6.662   6.662   6.662   6.662   6.662   6.662   6.662   6.662   6.662   6.662
    25.93    6.662   6.662   6.662   6.662   6.662   6.662   6.662   6.662   6.662   6.662   6.662   6.662   6.662   6.662   6.662
     5.25    6.662   6.662   6.662   6.662   6.662   6.662   6.662   6.662   6.662   6.662   6.662   6.662   6.662   6.662   6.662

   Height   Standard deviation at grid points for the w component:
   294.75    3.958   3.958   3.958   3.958   3.958   3.958   3.958   3.958   3.958   3.958   3.958   3.958   3.958   3.958   3.958
   274.07    3.958   3.958   3.958   3.958   3.958   3.958   3.958   3.958   3.958   3.958   3.958   3.958   3.958   3.958   3.958
   253.39    3.958   3.958   3.958   3.958   3.958   3.958   3.958   3.958   3.958   3.958   3.958   3.958   3.958   3.958   3.958
   232.71    3.958   3.958   3.958   3.958   3.958   3.958   3.958   3.958   3.958   3.958   3.958   3.958   3.958   3.958   3.958
   212.04    3.958   3.958   3.958   3.958   3.958   3.958   3.958   3.958   3.958   3.958   3.958   3.958   3.958   3.958   3.958
   191.36    3.958   3.958   3.958   3.958   3.958   3.958   3.958   3.958   3.958   3.958   3.958   3.958   3.958   3.958   3.958
   170.68    3.958   3.958   3.958   3.958   3.958   3.958   3.958   3.958   3.958   3.958   3.958   3.958   3.958   3.958   3.958
   150.00    3.958   3.958   3.958   3.958   3.958   3.958   3.958   3.958   3.958   3.958   3.958   3.958   3.958   3.958   3.958
   129.32    3.958   3.958   3.958   3.958   3.958   3.958   3.958   3.958   3.958   3.958   3.958   3.958   3.958   3.958   3.958
   108.64    3.958   3.958   3.958   3.958   3.958   3.958   3.958   3.958   3.958   3.958   3.958   3.958   3.958   3.958   3.958
    87.96    3.958   3.958   3.958   3.958   3.958   3.958   3.958   3.958   3.958   3.958   3.958   3.958   3.958   3.958   3.958
    67.29    3.958   3.958   3.958   3.958   3.958   3.958   3.958   3.958   3.958   3.958   3.958   3.958   3.958   3.958   3.958
    46.61    3.958   3.958   3.958   3.958   3.958   3.958   3.958   3.958   3.958   3.958   3.958   3.958   3.958   3.958   3.958
    25.93    3.958   3.958   3.958   3.958   3.958   3.958   3.958   3.958   3.958   3.958   3.958   3.958   3.958   3.958   3.958
     5.25    3.958   3.958   3.958   3.958   3.958   3.958   3.958   3.958   3.958   3.958   3.958   3.958   3.958   3.958   3.958

   Mean standard deviation across all grid points:
      u component:    7.694 m/s
      v component:    6.662 m/s
      w component:    3.958 m/s


U-component (X) statistics from the interpolated hub point:

   Mean =  81.0000 m/s
   TI   =   9.1788 %


Processing complete.  7.743 CPU seconds used.
