
This summary file was generated by TurbSim (from OpenFAST-v3.5.1-607-g88e18ed3) on 14-Dec-2024 at 20:01:57.


Runtime Options:

    653177  Random seed #1
    RANLUX  Type of random number generator
         F  Output binary HH turbulence parameters?
         F  Output formatted turbulence parameters?
         F  Output AeroDyn HH files?
         T  Output AeroDyn FF files?
         F  Output BLADED FF files?
         F  Output tower data?
         F  Output HAWC FF files?
         F  Output formatted FF files?
         T  Output coherent turbulence time step file?
 0 -  NONE  IEC turbulence models scaled to exact specified standard deviation


Turbine/Model Specifications:

        15  Vertical grid-point matrix dimension
        15  Horizontal grid-point matrix dimension
     0.100  Time step [seconds]
    60.000  Analysis time [seconds]
    60.000  Usable output time [seconds]
   150.000  Hub height [m]
   289.500  Grid height [m]
   350.000  Grid width [m]
     0.000  Vertical flow angle [degrees]
     0.000  Horizontal flow angle [degrees]


Meteorological Boundary Conditions:

    IECKAI  IEC Kaimal spectral model
         3  IEC standard: IEC 61400-3 Ed. 1: 2006
    11.000  Percent turbulence intensity, IEC 61400-3 Ed. 1: 2006
       NTM  IEC Normal Turbulence Model
       N/A  IEC Extreme Turbulence Model (ETM) "c" parameter [m/s]
       PL   Wind profile type
   150.000  Reference height [m]
    81.000  Reference wind speed [m/s]
       N/A  Jet height [m]
     0.120  Power law exponent
     0.030  Surface roughness length [m]


Non-IEC Meteorological Boundary Conditions:

       N/A  Site latitude [degrees]
       N/A  Gradient Richardson number
       N/A  Friction or shear velocity [m/s]
       N/A  Mixing layer depth [m]
       N/A  Mean hub u'w' Reynolds stress
       N/A  Mean hub u'v' Reynolds stress
       N/A  Mean hub v'w' Reynolds stress


Spatial Coherence Models:

       IEC  u-component coherence model
      NONE  v-component coherence model
      NONE  w-component coherence model
(   12.000, 0.353E-03)  u-component coherence parameters
                   N/A  v-component coherence parameters
                   N/A  w-component coherence parameters
       N/A  Coherence exponent


You have requested that the following file(s) be generated:

   Turbsim_Vhub_81_seednum_653177.Turbsim.bts (AeroDyn/TurbSim full-field wind file)


Turbulence Simulation Scaling Parameter Summary:

   Turbulence model used                            =  IEC Kaimal
   Turbulence characteristic                        =  User-specified
   IEC standard                                     =  IEC 61400-3 Ed. 1: 2006
   Mean wind speed at hub height                    =   81.000 m/s
   Characteristic value of standard deviation       =    8.910 m/s
   Turbulence scale                                 =   42.000 m
   u-component integral scale                       =  340.200 m
   Coherency scale                                  =  340.200 m
   Characteristic value of hub turbulence intensity =   11.000%
   Gradient Richardson number                       =    0.000

   Wind profile type                                =  Power law
   Power law exponent                               =    0.120
   Mean shear across rotor disk                     =    0.116 (m/s)/m
   Assumed rotor diameter                           =  289.500 m
   Surface roughness length                         =    0.030 m

   Nyquist frequency of turbulent wind field        =    5.000 Hz

   Number of time steps in the FFT                  =      600
   Number of time steps output                      =      600
   Number of points simulated                       =      225


Mean Flow Angles:

   Vertical   =   0.0 degrees
   Horizontal =   0.0 degrees

Mean Wind Speed Profile:

   Height    Wind Speed   Horizontal Angle  Vertical Angle  U-comp (X)   V-comp (Y)   W-comp (Z)
     (m)        (m/s)         (degrees)       (degrees)       (m/s)        (m/s)        (m/s)   
   ------    ----------   ----------------  --------------  ----------   ----------   ----------
    294.8       87.84            0.00            0.00         87.84         0.00         0.00
    274.1       87.08            0.00            0.00         87.08         0.00         0.00
    253.4       86.26            0.00            0.00         86.26         0.00         0.00
    232.7       85.38            0.00            0.00         85.38         0.00         0.00
    212.0       84.44            0.00            0.00         84.44         0.00         0.00
    191.4       83.40            0.00            0.00         83.40         0.00         0.00
    170.7       82.27            0.00            0.00         82.27         0.00         0.00
    150.0       81.00            0.00            0.00         81.00         0.00         0.00
    129.3       79.57            0.00            0.00         79.57         0.00         0.00
    108.6       77.92            0.00            0.00         77.92         0.00         0.00
     88.0       75.98            0.00            0.00         75.98         0.00         0.00
     67.3       73.57            0.00            0.00         73.57         0.00         0.00
     46.6       70.40            0.00            0.00         70.40         0.00         0.00
     25.9       65.62            0.00            0.00         65.62         0.00         0.00
      5.2       54.17            0.00            0.00         54.17         0.00         0.00


Harvested Random Seeds after Generation of the Random Numbers:

      1881463 K 1
            0 K 2


Hub-Height Simulated Turbulence Statistical Summary:

   Type of Wind        Min (m/s)   Mean (m/s)    Max (m/s)  Sigma (m/s)       TI (%)
   ----------------    ---------   ----------    ---------  -----------       ------
   Longitudinal (u)        58.24        81.00       104.61        9.981       12.322
   Lateral (v)            -18.23         0.00        20.01        6.662        8.225
   Vertical (w)           -10.61         0.00        12.11        3.958        4.887
   U component             58.24        81.00       104.61        9.981       12.322
   V component            -18.23         0.00        20.01        6.662        8.225
   W component            -10.61         0.00        12.11        3.958        4.887
   Horizontal (U&V)        58.26        81.27       104.79        9.976       12.274
   Total                   58.27        81.37       104.82        9.968       12.250

                       Min Reynolds     Mean Reynolds    Max Reynolds    Correlation
   Product             Stress (m/s)^2   Stress (m/s)^2   Stress (m/s)^2  Coefficient
   ----------------    --------------   --------------   --------------  -----------
   u'w'                   -129.425             0.274           173.415         0.007
   u'v'                   -262.313             6.412           275.102         0.096
   v'w'                   -169.886            -2.429            82.535        -0.092


   Friction Velocity (Ustar)  =      0.523 m/s
   Maximum Instantaneous TKE  =    336.332 (m/s)^2
   Maximum Instantaneous CTKE =    143.654 (m/s)^2


Grid Point Variance Summary:

   Y-coord -175.00 -150.00 -125.00 -100.00  -75.00  -50.00  -25.00    0.00   25.00   50.00   75.00  100.00  125.00  150.00  175.00

   Height   Standard deviation at grid points for the u component:
   294.75    9.297   9.063   8.417   8.338   9.655   7.958   8.829   9.220  10.382  10.487   9.713  11.163   9.715  10.050   9.334
   274.07    9.357   8.515   8.470   8.590   8.463   9.172   9.239   9.466   9.932   8.753   9.516  10.114   9.983  10.769   9.517
   253.39    8.920   8.224   7.239   8.143   8.034   8.158   8.087   9.806   9.135   8.627   8.581   9.296   9.379   9.437   9.497
   232.71    8.432   9.088   7.952   8.255   8.632   8.185   8.684   9.701   8.835   7.345   7.841   7.574   8.421   8.642   9.134
   212.04    8.693   8.404   8.184   8.321   8.610  10.018   9.568   9.596   8.377   7.670   8.287   8.101   7.327   8.113   7.389
   191.36    9.731   9.144   8.714   8.323   9.645  10.150  10.304   9.075   7.835   8.118   7.205   8.118   8.677   7.669   7.518
   170.68   11.254  11.548   9.925   9.208  10.108   9.778   9.523   8.928   8.269   6.908   7.638   7.881   7.751   6.678   6.558
   150.00   10.326  10.607   9.817   8.637  10.425  10.807  10.417   9.981   8.547   7.528   8.541   7.501   7.596   6.882   7.369
   129.32    9.368   9.910  10.002   9.862  10.449  10.343   9.152   9.945   8.910   8.078   7.543   8.869   7.264   7.466   8.403
   108.64    9.031   9.014   9.293   9.639  10.068   9.720   9.971  10.243   9.529   8.287   8.786   8.571   7.576   8.288   7.957
    87.96    9.079   9.851   8.465   8.142   8.645   9.741   9.683   9.143   9.065   8.093   8.139   7.874   6.226   8.087   8.212
    67.29    8.093   8.765   8.019   7.754   8.304   7.831   8.071   9.294   8.967   7.971   8.516   7.844   6.862   8.926   8.520
    46.61    7.778   7.733   7.669   6.514   7.135   8.039   8.318   8.390   9.372   8.463   9.126   7.504   8.345   8.659   9.605
    25.93    7.723   7.369   8.155   8.647   7.802   7.830   8.166   8.024   8.559   7.072   7.953   8.078   7.885   8.488   8.980
     5.25    8.148   8.910   8.606   8.964   8.848   8.230   9.330   7.792   8.320   7.690   7.503   8.039   7.461   8.337   9.580

   Height   Standard deviation at grid points for the v component:
   294.75    6.662   6.662   6.662   6.662   6.662   6.662   6.662   6.662   6.662   6.662   6.662   6.662   6.662   6.662   6.662
   274.07    6.662   6.662   6.662   6.662   6.662   6.662   6.662   6.662   6.662   6.662   6.662   6.662   6.662   6.662   6.662
   253.39    6.662   6.662   6.662   6.662   6.662   6.662   6.662   6.662   6.662   6.662   6.662   6.662   6.662   6.662   6.662
   232.71    6.662   6.662   6.662   6.662   6.662   6.662   6.662   6.662   6.662   6.662   6.662   6.662   6.662   6.662   6.662
   212.04    6.662   6.662   6.662   6.662   6.662   6.662   6.662   6.662   6.662   6.662   6.662   6.662   6.662   6.662   6.662
   191.36    6.662   6.662   6.662   6.662   6.662   6.662   6.662   6.662   6.662   6.662   6.662   6.662   6.662   6.662   6.662
   170.68    6.662   6.662   6.662   6.662   6.662   6.662   6.662   6.662   6.662   6.662   6.662   6.662   6.662   6.662   6.662
   150.00    6.662   6.662   6.662   6.662   6.662   6.662   6.662   6.662   6.662   6.662   6.662   6.662   6.662   6.662   6.662
   129.32    6.662   6.662   6.662   6.662   6.662   6.662   6.662   6.662   6.662   6.662   6.662   6.662   6.662   6.662   6.662
   108.64    6.662   6.662   6.662   6.662   6.662   6.662   6.662   6.662   6.662   6.662   6.662   6.662   6.662   6.662   6.662
    87.96    6.662   6.662   6.662   6.662   6.662   6.662   6.662   6.662   6.662   6.662   6.662   6.662   6.662   6.662   6.662
    67.29    6.662   6.662   6.662   6.662   6.662   6.662   6.662   6.662   6.662   6.662   6.662   6.662   6.662   6.662   6.662
    46.61    6.662   6.662   6.662   6.662   6.662   6.662   6.662   6.662   6.662   6.662   6.662   6.662   6.662   6.662   6.662
    25.93    6.662   6.662   6.662   6.662   6.662   6.662   6.662   6.662   6.662   6.662   6.662   6.662   6.662   6.662   6.662
     5.25    6.662   6.662   6.662   6.662   6.662   6.662   6.662   6.662   6.662   6.662   6.662   6.662   6.662   6.662   6.662

   Height   Standard deviation at grid points for the w component:
   294.75    3.958   3.958   3.958   3.958   3.958   3.958   3.958   3.958   3.958   3.958   3.958   3.958   3.958   3.958   3.958
   274.07    3.958   3.958   3.958   3.958   3.958   3.958   3.958   3.958   3.958   3.958   3.958   3.958   3.958   3.958   3.958
   253.39    3.958   3.958   3.958   3.958   3.958   3.958   3.958   3.958   3.958   3.958   3.958   3.958   3.958   3.958   3.958
   232.71    3.958   3.958   3.958   3.958   3.958   3.958   3.958   3.958   3.958   3.958   3.958   3.958   3.958   3.958   3.958
   212.04    3.958   3.958   3.958   3.958   3.958   3.958   3.958   3.958   3.958   3.958   3.958   3.958   3.958   3.958   3.958
   191.36    3.958   3.958   3.958   3.958   3.958   3.958   3.958   3.958   3.958   3.958   3.958   3.958   3.958   3.958   3.958
   170.68    3.958   3.958   3.958   3.958   3.958   3.958   3.958   3.958   3.958   3.958   3.958   3.958   3.958   3.958   3.958
   150.00    3.958   3.958   3.958   3.958   3.958   3.958   3.958   3.958   3.958   3.958   3.958   3.958   3.958   3.958   3.958
   129.32    3.958   3.958   3.958   3.958   3.958   3.958   3.958   3.958   3.958   3.958   3.958   3.958   3.958   3.958   3.958
   108.64    3.958   3.958   3.958   3.958   3.958   3.958   3.958   3.958   3.958   3.958   3.958   3.958   3.958   3.958   3.958
    87.96    3.958   3.958   3.958   3.958   3.958   3.958   3.958   3.958   3.958   3.958   3.958   3.958   3.958   3.958   3.958
    67.29    3.958   3.958   3.958   3.958   3.958   3.958   3.958   3.958   3.958   3.958   3.958   3.958   3.958   3.958   3.958
    46.61    3.958   3.958   3.958   3.958   3.958   3.958   3.958   3.958   3.958   3.958   3.958   3.958   3.958   3.958   3.958
    25.93    3.958   3.958   3.958   3.958   3.958   3.958   3.958   3.958   3.958   3.958   3.958   3.958   3.958   3.958   3.958
     5.25    3.958   3.958   3.958   3.958   3.958   3.958   3.958   3.958   3.958   3.958   3.958   3.958   3.958   3.958   3.958

   Mean standard deviation across all grid points:
      u component:    8.691 m/s
      v component:    6.662 m/s
      w component:    3.958 m/s


U-component (X) statistics from the interpolated hub point:

   Mean =  81.0000 m/s
   TI   =  12.3223 %


Processing complete.  9.5793 CPU seconds used.
