
This summary file was generated by TurbSim (from OpenFAST-v3.5.1-607-g88e18ed3) on 14-Dec-2024 at 20:00:35.


Runtime Options:

    656411  Random seed #1
    RANLUX  Type of random number generator
         F  Output binary HH turbulence parameters?
         F  Output formatted turbulence parameters?
         F  Output AeroDyn HH files?
         T  Output AeroDyn FF files?
         F  Output BLADED FF files?
         F  Output tower data?
         F  Output HAWC FF files?
         F  Output formatted FF files?
         T  Output coherent turbulence time step file?
 0 -  NONE  IEC turbulence models scaled to exact specified standard deviation


Turbine/Model Specifications:

        15  Vertical grid-point matrix dimension
        15  Horizontal grid-point matrix dimension
     0.100  Time step [seconds]
    60.000  Analysis time [seconds]
    60.000  Usable output time [seconds]
   150.000  Hub height [m]
   289.500  Grid height [m]
   350.000  Grid width [m]
     0.000  Vertical flow angle [degrees]
     0.000  Horizontal flow angle [degrees]


Meteorological Boundary Conditions:

    IECKAI  IEC Kaimal spectral model
         3  IEC standard: IEC 61400-3 Ed. 1: 2006
    11.000  Percent turbulence intensity, IEC 61400-3 Ed. 1: 2006
       NTM  IEC Normal Turbulence Model
       N/A  IEC Extreme Turbulence Model (ETM) "c" parameter [m/s]
       PL   Wind profile type
   150.000  Reference height [m]
    25.000  Reference wind speed [m/s]
       N/A  Jet height [m]
     0.120  Power law exponent
     0.030  Surface roughness length [m]


Non-IEC Meteorological Boundary Conditions:

       N/A  Site latitude [degrees]
       N/A  Gradient Richardson number
       N/A  Friction or shear velocity [m/s]
       N/A  Mixing layer depth [m]
       N/A  Mean hub u'w' Reynolds stress
       N/A  Mean hub u'v' Reynolds stress
       N/A  Mean hub v'w' Reynolds stress


Spatial Coherence Models:

       IEC  u-component coherence model
      NONE  v-component coherence model
      NONE  w-component coherence model
(   12.000, 0.353E-03)  u-component coherence parameters
                   N/A  v-component coherence parameters
                   N/A  w-component coherence parameters
       N/A  Coherence exponent


You have requested that the following file(s) be generated:

   Turbsim_Vhub_25_seednum_656411.Turbsim.bts (AeroDyn/TurbSim full-field wind file)


Turbulence Simulation Scaling Parameter Summary:

   Turbulence model used                            =  IEC Kaimal
   Turbulence characteristic                        =  User-specified
   IEC standard                                     =  IEC 61400-3 Ed. 1: 2006
   Mean wind speed at hub height                    =   25.000 m/s
   Characteristic value of standard deviation       =    2.750 m/s
   Turbulence scale                                 =   42.000 m
   u-component integral scale                       =  340.200 m
   Coherency scale                                  =  340.200 m
   Characteristic value of hub turbulence intensity =   11.000%
   Gradient Richardson number                       =    0.000

   Wind profile type                                =  Power law
   Power law exponent                               =    0.120
   Mean shear across rotor disk                     =    0.036 (m/s)/m
   Assumed rotor diameter                           =  289.500 m
   Surface roughness length                         =    0.030 m

   Nyquist frequency of turbulent wind field        =    5.000 Hz

   Number of time steps in the FFT                  =      600
   Number of time steps output                      =      600
   Number of points simulated                       =      225


Mean Flow Angles:

   Vertical   =   0.0 degrees
   Horizontal =   0.0 degrees

Mean Wind Speed Profile:

   Height    Wind Speed   Horizontal Angle  Vertical Angle  U-comp (X)   V-comp (Y)   W-comp (Z)
     (m)        (m/s)         (degrees)       (degrees)       (m/s)        (m/s)        (m/s)   
   ------    ----------   ----------------  --------------  ----------   ----------   ----------
    294.8       27.11            0.00            0.00         27.11         0.00         0.00
    274.1       26.88            0.00            0.00         26.88         0.00         0.00
    253.4       26.62            0.00            0.00         26.62         0.00         0.00
    232.7       26.35            0.00            0.00         26.35         0.00         0.00
    212.0       26.06            0.00            0.00         26.06         0.00         0.00
    191.4       25.74            0.00            0.00         25.74         0.00         0.00
    170.7       25.39            0.00            0.00         25.39         0.00         0.00
    150.0       25.00            0.00            0.00         25.00         0.00         0.00
    129.3       24.56            0.00            0.00         24.56         0.00         0.00
    108.6       24.05            0.00            0.00         24.05         0.00         0.00
     88.0       23.45            0.00            0.00         23.45         0.00         0.00
     67.3       22.71            0.00            0.00         22.71         0.00         0.00
     46.6       21.73            0.00            0.00         21.73         0.00         0.00
     25.9       20.25            0.00            0.00         20.25         0.00         0.00
      5.2       16.72            0.00            0.00         16.72         0.00         0.00


Harvested Random Seeds after Generation of the Random Numbers:

      1881463 K 1
            0 K 2


Hub-Height Simulated Turbulence Statistical Summary:

   Type of Wind        Min (m/s)   Mean (m/s)    Max (m/s)  Sigma (m/s)       TI (%)
   ----------------    ---------   ----------    ---------  -----------       ------
   Longitudinal (u)        17.08        25.00        29.69        2.442        9.769
   Lateral (v)             -5.97         0.00         5.80        2.004        8.015
   Vertical (w)            -4.32         0.00         3.95        1.282        5.128
   U component             17.08        25.00        29.69        2.442        9.769
   V component             -5.97         0.00         5.80        2.004        8.015
   W component             -4.32         0.00         3.95        1.282        5.128
   Horizontal (U&V)        17.11        25.08        29.88        2.433        9.702
   Total                   17.25        25.11        29.89        2.434        9.690

                       Min Reynolds     Mean Reynolds    Max Reynolds    Correlation
   Product             Stress (m/s)^2   Stress (m/s)^2   Stress (m/s)^2  Coefficient
   ----------------    --------------   --------------   --------------  -----------
   u'w'                    -18.586            -0.137            16.409        -0.044
   u'v'                    -23.253            -1.203            11.938        -0.246
   v'w'                    -10.422             0.109             8.393         0.042


   Friction Velocity (Ustar)  =      0.370 m/s
   Maximum Instantaneous TKE  =     34.252 (m/s)^2
   Maximum Instantaneous CTKE =     11.722 (m/s)^2


Grid Point Variance Summary:

   Y-coord -175.00 -150.00 -125.00 -100.00  -75.00  -50.00  -25.00    0.00   25.00   50.00   75.00  100.00  125.00  150.00  175.00

   Height   Standard deviation at grid points for the u component:
   294.75    2.337   2.678   2.245   2.295   2.304   2.211   1.902   2.655   3.318   3.855   3.363   3.250   2.888   2.746   2.476
   274.07    2.693   2.307   2.573   2.263   2.262   1.972   2.357   2.274   2.911   3.572   3.418   3.369   3.051   2.428   2.532
   253.39    2.503   2.209   2.154   2.441   2.305   1.644   2.209   2.299   2.700   3.170   2.936   2.519   3.046   3.057   2.188
   232.71    2.148   2.240   2.709   2.469   2.444   1.967   1.975   2.606   3.167   2.991   2.839   2.671   3.019   2.683   1.951
   212.04    2.563   2.913   2.993   2.257   1.981   2.145   2.159   2.163   3.081   3.012   2.557   2.480   2.675   2.400   2.453
   191.36    2.221   2.189   2.477   2.236   2.712   2.171   2.234   2.796   2.906   3.065   2.760   1.969   2.607   3.167   2.527
   170.68    2.207   1.885   1.887   1.765   2.039   2.607   2.214   2.523   2.882   2.674   2.309   2.313   2.781   2.836   2.788
   150.00    2.251   1.630   1.868   1.642   2.095   2.136   1.919   2.442   2.494   2.073   2.557   2.640   2.414   2.439   2.376
   129.32    2.230   1.719   1.657   2.114   2.004   1.769   1.958   2.028   2.124   1.974   2.767   3.032   2.874   2.890   2.343
   108.64    2.697   2.276   1.922   1.812   2.347   1.876   1.765   2.208   2.435   1.960   2.477   2.626   2.752   2.702   2.738
    87.96    2.872   1.858   1.627   2.067   2.461   2.258   1.538   2.236   2.578   2.222   1.997   2.274   2.040   2.047   2.639
    67.29    2.717   2.050   2.099   1.941   2.345   2.316   2.412   2.169   2.218   2.506   2.328   1.869   2.240   1.998   2.415
    46.61    2.264   2.428   1.873   1.907   2.069   1.971   2.571   2.473   1.964   1.940   2.609   2.268   2.184   2.050   1.945
    25.93    2.047   2.107   1.825   1.642   1.806   1.776   2.230   2.203   2.179   2.180   2.548   2.503   2.030   1.813   1.775
     5.25    2.252   1.920   1.938   2.088   1.725   1.845   1.958   2.095   2.321   2.430   1.919   2.164   1.793   1.892   2.116

   Height   Standard deviation at grid points for the v component:
   294.75    2.004   2.004   2.004   2.004   2.004   2.004   2.004   2.004   2.004   2.004   2.004   2.004   2.004   2.004   2.004
   274.07    2.004   2.004   2.004   2.004   2.004   2.004   2.004   2.004   2.004   2.004   2.004   2.004   2.004   2.004   2.004
   253.39    2.004   2.004   2.004   2.004   2.004   2.004   2.004   2.004   2.004   2.004   2.004   2.004   2.004   2.004   2.004
   232.71    2.004   2.004   2.004   2.004   2.004   2.004   2.004   2.004   2.004   2.004   2.004   2.004   2.004   2.004   2.004
   212.04    2.004   2.004   2.004   2.004   2.004   2.004   2.004   2.004   2.004   2.004   2.004   2.004   2.004   2.004   2.004
   191.36    2.004   2.004   2.004   2.004   2.004   2.004   2.004   2.004   2.004   2.004   2.004   2.004   2.004   2.004   2.004
   170.68    2.004   2.004   2.004   2.004   2.004   2.004   2.004   2.004   2.004   2.004   2.004   2.004   2.004   2.004   2.004
   150.00    2.004   2.004   2.004   2.004   2.004   2.004   2.004   2.004   2.004   2.004   2.004   2.004   2.004   2.004   2.004
   129.32    2.004   2.004   2.004   2.004   2.004   2.004   2.004   2.004   2.004   2.004   2.004   2.004   2.004   2.004   2.004
   108.64    2.004   2.004   2.004   2.004   2.004   2.004   2.004   2.004   2.004   2.004   2.004   2.004   2.004   2.004   2.004
    87.96    2.004   2.004   2.004   2.004   2.004   2.004   2.004   2.004   2.004   2.004   2.004   2.004   2.004   2.004   2.004
    67.29    2.004   2.004   2.004   2.004   2.004   2.004   2.004   2.004   2.004   2.004   2.004   2.004   2.004   2.004   2.004
    46.61    2.004   2.004   2.004   2.004   2.004   2.004   2.004   2.004   2.004   2.004   2.004   2.004   2.004   2.004   2.004
    25.93    2.004   2.004   2.004   2.004   2.004   2.004   2.004   2.004   2.004   2.004   2.004   2.004   2.004   2.004   2.004
     5.25    2.004   2.004   2.004   2.004   2.004   2.004   2.004   2.004   2.004   2.004   2.004   2.004   2.004   2.004   2.004

   Height   Standard deviation at grid points for the w component:
   294.75    1.282   1.282   1.282   1.282   1.282   1.282   1.282   1.282   1.282   1.282   1.282   1.282   1.282   1.282   1.282
   274.07    1.282   1.282   1.282   1.282   1.282   1.282   1.282   1.282   1.282   1.282   1.282   1.282   1.282   1.282   1.282
   253.39    1.282   1.282   1.282   1.282   1.282   1.282   1.282   1.282   1.282   1.282   1.282   1.282   1.282   1.282   1.282
   232.71    1.282   1.282   1.282   1.282   1.282   1.282   1.282   1.282   1.282   1.282   1.282   1.282   1.282   1.282   1.282
   212.04    1.282   1.282   1.282   1.282   1.282   1.282   1.282   1.282   1.282   1.282   1.282   1.282   1.282   1.282   1.282
   191.36    1.282   1.282   1.282   1.282   1.282   1.282   1.282   1.282   1.282   1.282   1.282   1.282   1.282   1.282   1.282
   170.68    1.282   1.282   1.282   1.282   1.282   1.282   1.282   1.282   1.282   1.282   1.282   1.282   1.282   1.282   1.282
   150.00    1.282   1.282   1.282   1.282   1.282   1.282   1.282   1.282   1.282   1.282   1.282   1.282   1.282   1.282   1.282
   129.32    1.282   1.282   1.282   1.282   1.282   1.282   1.282   1.282   1.282   1.282   1.282   1.282   1.282   1.282   1.282
   108.64    1.282   1.282   1.282   1.282   1.282   1.282   1.282   1.282   1.282   1.282   1.282   1.282   1.282   1.282   1.282
    87.96    1.282   1.282   1.282   1.282   1.282   1.282   1.282   1.282   1.282   1.282   1.282   1.282   1.282   1.282   1.282
    67.29    1.282   1.282   1.282   1.282   1.282   1.282   1.282   1.282   1.282   1.282   1.282   1.282   1.282   1.282   1.282
    46.61    1.282   1.282   1.282   1.282   1.282   1.282   1.282   1.282   1.282   1.282   1.282   1.282   1.282   1.282   1.282
    25.93    1.282   1.282   1.282   1.282   1.282   1.282   1.282   1.282   1.282   1.282   1.282   1.282   1.282   1.282   1.282
     5.25    1.282   1.282   1.282   1.282   1.282   1.282   1.282   1.282   1.282   1.282   1.282   1.282   1.282   1.282   1.282

   Mean standard deviation across all grid points:
      u component:    2.348 m/s
      v component:    2.004 m/s
      w component:    1.282 m/s


U-component (X) statistics from the interpolated hub point:

   Mean =  25.0000 m/s
   TI   =   9.7686 %


Processing complete.  6.1459 CPU seconds used.
