
This summary file was generated by TurbSim (from OpenFAST-v3.5.1-607-g88e18ed3) on 14-Dec-2024 at 20:02:10.


Runtime Options:

    653177  Random seed #1
    RANLUX  Type of random number generator
         F  Output binary HH turbulence parameters?
         F  Output formatted turbulence parameters?
         F  Output AeroDyn HH files?
         T  Output AeroDyn FF files?
         F  Output BLADED FF files?
         F  Output tower data?
         F  Output HAWC FF files?
         F  Output formatted FF files?
         T  Output coherent turbulence time step file?
 0 -  NONE  IEC turbulence models scaled to exact specified standard deviation


Turbine/Model Specifications:

        15  Vertical grid-point matrix dimension
        15  Horizontal grid-point matrix dimension
     0.100  Time step [seconds]
    60.000  Analysis time [seconds]
    60.000  Usable output time [seconds]
   150.000  Hub height [m]
   289.500  Grid height [m]
   350.000  Grid width [m]
     0.000  Vertical flow angle [degrees]
     0.000  Horizontal flow angle [degrees]


Meteorological Boundary Conditions:

    IECKAI  IEC Kaimal spectral model
         3  IEC standard: IEC 61400-3 Ed. 1: 2006
    11.000  Percent turbulence intensity, IEC 61400-3 Ed. 1: 2006
       NTM  IEC Normal Turbulence Model
       N/A  IEC Extreme Turbulence Model (ETM) "c" parameter [m/s]
       PL   Wind profile type
   150.000  Reference height [m]
    33.000  Reference wind speed [m/s]
       N/A  Jet height [m]
     0.120  Power law exponent
     0.030  Surface roughness length [m]


Non-IEC Meteorological Boundary Conditions:

       N/A  Site latitude [degrees]
       N/A  Gradient Richardson number
       N/A  Friction or shear velocity [m/s]
       N/A  Mixing layer depth [m]
       N/A  Mean hub u'w' Reynolds stress
       N/A  Mean hub u'v' Reynolds stress
       N/A  Mean hub v'w' Reynolds stress


Spatial Coherence Models:

       IEC  u-component coherence model
      NONE  v-component coherence model
      NONE  w-component coherence model
(   12.000, 0.353E-03)  u-component coherence parameters
                   N/A  v-component coherence parameters
                   N/A  w-component coherence parameters
       N/A  Coherence exponent


You have requested that the following file(s) be generated:

   Turbsim_Vhub_33_seednum_653177.Turbsim.bts (AeroDyn/TurbSim full-field wind file)


Turbulence Simulation Scaling Parameter Summary:

   Turbulence model used                            =  IEC Kaimal
   Turbulence characteristic                        =  User-specified
   IEC standard                                     =  IEC 61400-3 Ed. 1: 2006
   Mean wind speed at hub height                    =   33.000 m/s
   Characteristic value of standard deviation       =    3.630 m/s
   Turbulence scale                                 =   42.000 m
   u-component integral scale                       =  340.200 m
   Coherency scale                                  =  340.200 m
   Characteristic value of hub turbulence intensity =   11.000%
   Gradient Richardson number                       =    0.000

   Wind profile type                                =  Power law
   Power law exponent                               =    0.120
   Mean shear across rotor disk                     =    0.047 (m/s)/m
   Assumed rotor diameter                           =  289.500 m
   Surface roughness length                         =    0.030 m

   Nyquist frequency of turbulent wind field        =    5.000 Hz

   Number of time steps in the FFT                  =      600
   Number of time steps output                      =      600
   Number of points simulated                       =      225


Mean Flow Angles:

   Vertical   =   0.0 degrees
   Horizontal =   0.0 degrees

Mean Wind Speed Profile:

   Height    Wind Speed   Horizontal Angle  Vertical Angle  U-comp (X)   V-comp (Y)   W-comp (Z)
     (m)        (m/s)         (degrees)       (degrees)       (m/s)        (m/s)        (m/s)   
   ------    ----------   ----------------  --------------  ----------   ----------   ----------
    294.8       35.79            0.00            0.00         35.79         0.00         0.00
    274.1       35.48            0.00            0.00         35.48         0.00         0.00
    253.4       35.14            0.00            0.00         35.14         0.00         0.00
    232.7       34.79            0.00            0.00         34.79         0.00         0.00
    212.0       34.40            0.00            0.00         34.40         0.00         0.00
    191.4       33.98            0.00            0.00         33.98         0.00         0.00
    170.7       33.52            0.00            0.00         33.52         0.00         0.00
    150.0       33.00            0.00            0.00         33.00         0.00         0.00
    129.3       32.42            0.00            0.00         32.42         0.00         0.00
    108.6       31.75            0.00            0.00         31.75         0.00         0.00
     88.0       30.95            0.00            0.00         30.95         0.00         0.00
     67.3       29.97            0.00            0.00         29.97         0.00         0.00
     46.6       28.68            0.00            0.00         28.68         0.00         0.00
     25.9       26.73            0.00            0.00         26.73         0.00         0.00
      5.2       22.07            0.00            0.00         22.07         0.00         0.00


Harvested Random Seeds after Generation of the Random Numbers:

      1881463 K 1
            0 K 2


Hub-Height Simulated Turbulence Statistical Summary:

   Type of Wind        Min (m/s)   Mean (m/s)    Max (m/s)  Sigma (m/s)       TI (%)
   ----------------    ---------   ----------    ---------  -----------       ------
   Longitudinal (u)        24.02        33.00        40.58        3.704       11.225
   Lateral (v)             -7.02         0.00         7.82        2.679        8.118
   Vertical (w)            -4.77        -0.00         5.12        1.682        5.098
   U component             24.02        33.00        40.58        3.704       11.225
   V component             -7.02         0.00         7.82        2.679        8.118
   W component             -4.77        -0.00         5.12        1.682        5.098
   Horizontal (U&V)        24.02        33.11        40.72        3.700       11.174
   Total                   24.02        33.15        40.74        3.699       11.159

                       Min Reynolds     Mean Reynolds    Max Reynolds    Correlation
   Product             Stress (m/s)^2   Stress (m/s)^2   Stress (m/s)^2  Coefficient
   ----------------    --------------   --------------   --------------  -----------
   u'w'                    -20.640             0.301            27.733         0.048
   u'v'                    -35.080             0.198            30.464         0.020
   v'w'                    -24.561            -0.743            11.374        -0.165


   Friction Velocity (Ustar)  =      0.548 m/s
   Maximum Instantaneous TKE  =     40.393 (m/s)^2
   Maximum Instantaneous CTKE =     19.667 (m/s)^2


Grid Point Variance Summary:

   Y-coord -175.00 -150.00 -125.00 -100.00  -75.00  -50.00  -25.00    0.00   25.00   50.00   75.00  100.00  125.00  150.00  175.00

   Height   Standard deviation at grid points for the u component:
   294.75    3.708   3.502   3.410   3.305   3.894   3.027   3.284   3.107   3.951   4.087   3.554   4.541   3.747   3.947   3.358
   274.07    3.619   3.265   3.282   3.441   3.365   3.682   3.319   3.197   3.683   3.228   3.739   3.987   3.926   4.490   3.449
   253.39    3.419   3.022   2.925   3.160   2.812   2.920   2.834   3.681   3.425   3.231   3.300   3.590   3.887   3.843   3.593
   232.71    3.065   3.286   2.858   3.184   3.489   2.439   2.917   3.683   3.062   2.308   2.763   2.908   3.448   3.443   3.641
   212.04    2.765   2.881   2.803   2.965   3.069   3.292   3.168   3.390   3.086   2.845   2.879   2.922   2.547   3.216   2.661
   191.36    3.287   2.996   2.802   2.721   3.303   3.401   3.640   3.156   2.730   2.705   2.304   3.003   3.357   2.728   2.656
   170.68    4.251   4.449   3.476   3.112   3.530   3.435   3.283   3.146   2.840   2.275   2.717   2.643   2.700   2.177   2.261
   150.00    3.926   4.272   3.638   3.049   3.908   4.087   3.840   3.704   2.872   2.483   2.975   2.296   2.491   2.394   2.779
   129.32    3.587   3.882   3.916   3.838   4.053   4.082   3.355   3.602   3.111   2.800   2.587   3.194   2.438   2.571   2.920
   108.64    3.497   3.564   3.416   3.849   3.930   3.953   3.851   3.844   3.430   2.790   3.412   3.223   2.795   2.975   2.931
    87.96    3.423   3.771   3.293   3.083   3.436   3.874   3.857   3.563   3.252   2.939   2.888   2.994   2.159   3.018   2.744
    67.29    3.014   3.256   3.102   2.911   3.345   2.850   3.071   3.748   3.548   2.947   3.020   2.537   2.547   3.560   3.114
    46.61    2.949   2.834   2.792   2.130   2.847   3.198   3.305   3.435   3.964   3.473   3.551   2.464   3.313   3.421   3.887
    25.93    2.845   2.687   3.185   3.592   3.375   3.144   3.239   3.056   3.497   2.452   2.727   2.837   3.121   3.504   3.733
     5.25    3.083   3.376   3.573   3.810   3.806   3.262   3.761   2.759   3.219   2.767   2.571   2.816   2.794   3.436   3.927

   Height   Standard deviation at grid points for the v component:
   294.75    2.679   2.679   2.679   2.679   2.679   2.679   2.679   2.679   2.679   2.679   2.679   2.679   2.679   2.679   2.679
   274.07    2.679   2.679   2.679   2.679   2.679   2.679   2.679   2.679   2.679   2.679   2.679   2.679   2.679   2.679   2.679
   253.39    2.679   2.679   2.679   2.679   2.679   2.679   2.679   2.679   2.679   2.679   2.679   2.679   2.679   2.679   2.679
   232.71    2.679   2.679   2.679   2.679   2.679   2.679   2.679   2.679   2.679   2.679   2.679   2.679   2.679   2.679   2.679
   212.04    2.679   2.679   2.679   2.679   2.679   2.679   2.679   2.679   2.679   2.679   2.679   2.679   2.679   2.679   2.679
   191.36    2.679   2.679   2.679   2.679   2.679   2.679   2.679   2.679   2.679   2.679   2.679   2.679   2.679   2.679   2.679
   170.68    2.679   2.679   2.679   2.679   2.679   2.679   2.679   2.679   2.679   2.679   2.679   2.679   2.679   2.679   2.679
   150.00    2.679   2.679   2.679   2.679   2.679   2.679   2.679   2.679   2.679   2.679   2.679   2.679   2.679   2.679   2.679
   129.32    2.679   2.679   2.679   2.679   2.679   2.679   2.679   2.679   2.679   2.679   2.679   2.679   2.679   2.679   2.679
   108.64    2.679   2.679   2.679   2.679   2.679   2.679   2.679   2.679   2.679   2.679   2.679   2.679   2.679   2.679   2.679
    87.96    2.679   2.679   2.679   2.679   2.679   2.679   2.679   2.679   2.679   2.679   2.679   2.679   2.679   2.679   2.679
    67.29    2.679   2.679   2.679   2.679   2.679   2.679   2.679   2.679   2.679   2.679   2.679   2.679   2.679   2.679   2.679
    46.61    2.679   2.679   2.679   2.679   2.679   2.679   2.679   2.679   2.679   2.679   2.679   2.679   2.679   2.679   2.679
    25.93    2.679   2.679   2.679   2.679   2.679   2.679   2.679   2.679   2.679   2.679   2.679   2.679   2.679   2.679   2.679
     5.25    2.679   2.679   2.679   2.679   2.679   2.679   2.679   2.679   2.679   2.679   2.679   2.679   2.679   2.679   2.679

   Height   Standard deviation at grid points for the w component:
   294.75    1.682   1.682   1.682   1.682   1.682   1.682   1.682   1.682   1.682   1.682   1.682   1.682   1.682   1.682   1.682
   274.07    1.682   1.682   1.682   1.682   1.682   1.682   1.682   1.682   1.682   1.682   1.682   1.682   1.682   1.682   1.682
   253.39    1.682   1.682   1.682   1.682   1.682   1.682   1.682   1.682   1.682   1.682   1.682   1.682   1.682   1.682   1.682
   232.71    1.682   1.682   1.682   1.682   1.682   1.682   1.682   1.682   1.682   1.682   1.682   1.682   1.682   1.682   1.682
   212.04    1.682   1.682   1.682   1.682   1.682   1.682   1.682   1.682   1.682   1.682   1.682   1.682   1.682   1.682   1.682
   191.36    1.682   1.682   1.682   1.682   1.682   1.682   1.682   1.682   1.682   1.682   1.682   1.682   1.682   1.682   1.682
   170.68    1.682   1.682   1.682   1.682   1.682   1.682   1.682   1.682   1.682   1.682   1.682   1.682   1.682   1.682   1.682
   150.00    1.682   1.682   1.682   1.682   1.682   1.682   1.682   1.682   1.682   1.682   1.682   1.682   1.682   1.682   1.682
   129.32    1.682   1.682   1.682   1.682   1.682   1.682   1.682   1.682   1.682   1.682   1.682   1.682   1.682   1.682   1.682
   108.64    1.682   1.682   1.682   1.682   1.682   1.682   1.682   1.682   1.682   1.682   1.682   1.682   1.682   1.682   1.682
    87.96    1.682   1.682   1.682   1.682   1.682   1.682   1.682   1.682   1.682   1.682   1.682   1.682   1.682   1.682   1.682
    67.29    1.682   1.682   1.682   1.682   1.682   1.682   1.682   1.682   1.682   1.682   1.682   1.682   1.682   1.682   1.682
    46.61    1.682   1.682   1.682   1.682   1.682   1.682   1.682   1.682   1.682   1.682   1.682   1.682   1.682   1.682   1.682
    25.93    1.682   1.682   1.682   1.682   1.682   1.682   1.682   1.682   1.682   1.682   1.682   1.682   1.682   1.682   1.682
     5.25    1.682   1.682   1.682   1.682   1.682   1.682   1.682   1.682   1.682   1.682   1.682   1.682   1.682   1.682   1.682

   Mean standard deviation across all grid points:
      u component:    3.237 m/s
      v component:    2.679 m/s
      w component:    1.682 m/s


U-component (X) statistics from the interpolated hub point:

   Mean =  33.0000 m/s
   TI   =  11.2251 %


Processing complete.  7.1823 CPU seconds used.
