
This summary file was generated by TurbSim (from OpenFAST-v3.5.1-607-g88e18ed3) on 14-Dec-2024 at 20:00:44.


Runtime Options:

    298704  Random seed #1
    RANLUX  Type of random number generator
         F  Output binary HH turbulence parameters?
         F  Output formatted turbulence parameters?
         F  Output AeroDyn HH files?
         T  Output AeroDyn FF files?
         F  Output BLADED FF files?
         F  Output tower data?
         F  Output HAWC FF files?
         F  Output formatted FF files?
         T  Output coherent turbulence time step file?
 0 -  NONE  IEC turbulence models scaled to exact specified standard deviation


Turbine/Model Specifications:

        15  Vertical grid-point matrix dimension
        15  Horizontal grid-point matrix dimension
     0.100  Time step [seconds]
    60.000  Analysis time [seconds]
    60.000  Usable output time [seconds]
   150.000  Hub height [m]
   289.500  Grid height [m]
   350.000  Grid width [m]
     0.000  Vertical flow angle [degrees]
     0.000  Horizontal flow angle [degrees]


Meteorological Boundary Conditions:

    IECKAI  IEC Kaimal spectral model
         3  IEC standard: IEC 61400-3 Ed. 1: 2006
    11.000  Percent turbulence intensity, IEC 61400-3 Ed. 1: 2006
       NTM  IEC Normal Turbulence Model
       N/A  IEC Extreme Turbulence Model (ETM) "c" parameter [m/s]
       PL   Wind profile type
   150.000  Reference height [m]
    17.000  Reference wind speed [m/s]
       N/A  Jet height [m]
     0.120  Power law exponent
     0.030  Surface roughness length [m]


Non-IEC Meteorological Boundary Conditions:

       N/A  Site latitude [degrees]
       N/A  Gradient Richardson number
       N/A  Friction or shear velocity [m/s]
       N/A  Mixing layer depth [m]
       N/A  Mean hub u'w' Reynolds stress
       N/A  Mean hub u'v' Reynolds stress
       N/A  Mean hub v'w' Reynolds stress


Spatial Coherence Models:

       IEC  u-component coherence model
      NONE  v-component coherence model
      NONE  w-component coherence model
(   12.000, 0.353E-03)  u-component coherence parameters
                   N/A  v-component coherence parameters
                   N/A  w-component coherence parameters
       N/A  Coherence exponent


You have requested that the following file(s) be generated:

   Turbsim_Vhub_17_seednum_298704.Turbsim.bts (AeroDyn/TurbSim full-field wind file)


Turbulence Simulation Scaling Parameter Summary:

   Turbulence model used                            =  IEC Kaimal
   Turbulence characteristic                        =  User-specified
   IEC standard                                     =  IEC 61400-3 Ed. 1: 2006
   Mean wind speed at hub height                    =   17.000 m/s
   Characteristic value of standard deviation       =    1.870 m/s
   Turbulence scale                                 =   42.000 m
   u-component integral scale                       =  340.200 m
   Coherency scale                                  =  340.200 m
   Characteristic value of hub turbulence intensity =   11.000%
   Gradient Richardson number                       =    0.000

   Wind profile type                                =  Power law
   Power law exponent                               =    0.120
   Mean shear across rotor disk                     =    0.024 (m/s)/m
   Assumed rotor diameter                           =  289.500 m
   Surface roughness length                         =    0.030 m

   Nyquist frequency of turbulent wind field        =    5.000 Hz

   Number of time steps in the FFT                  =      600
   Number of time steps output                      =      600
   Number of points simulated                       =      225


Mean Flow Angles:

   Vertical   =   0.0 degrees
   Horizontal =   0.0 degrees

Mean Wind Speed Profile:

   Height    Wind Speed   Horizontal Angle  Vertical Angle  U-comp (X)   V-comp (Y)   W-comp (Z)
     (m)        (m/s)         (degrees)       (degrees)       (m/s)        (m/s)        (m/s)   
   ------    ----------   ----------------  --------------  ----------   ----------   ----------
    294.8       18.44            0.00            0.00         18.44         0.00         0.00
    274.1       18.28            0.00            0.00         18.28         0.00         0.00
    253.4       18.10            0.00            0.00         18.10         0.00         0.00
    232.7       17.92            0.00            0.00         17.92         0.00         0.00
    212.0       17.72            0.00            0.00         17.72         0.00         0.00
    191.4       17.50            0.00            0.00         17.50         0.00         0.00
    170.7       17.27            0.00            0.00         17.27         0.00         0.00
    150.0       17.00            0.00            0.00         17.00         0.00         0.00
    129.3       16.70            0.00            0.00         16.70         0.00         0.00
    108.6       16.35            0.00            0.00         16.35         0.00         0.00
     88.0       15.95            0.00            0.00         15.95         0.00         0.00
     67.3       15.44            0.00            0.00         15.44         0.00         0.00
     46.6       14.78            0.00            0.00         14.78         0.00         0.00
     25.9       13.77            0.00            0.00         13.77         0.00         0.00
      5.2       11.37            0.00            0.00         11.37         0.00         0.00


Harvested Random Seeds after Generation of the Random Numbers:

      1881463 K 1
            0 K 2


Hub-Height Simulated Turbulence Statistical Summary:

   Type of Wind        Min (m/s)   Mean (m/s)    Max (m/s)  Sigma (m/s)       TI (%)
   ----------------    ---------   ----------    ---------  -----------       ------
   Longitudinal (u)        14.44        17.00        19.54        1.027        6.044
   Lateral (v)             -3.17         0.00         3.39        1.327        7.808
   Vertical (w)            -2.37         0.00         2.85        0.874        5.143
   U component             14.44        17.00        19.54        1.027        6.044
   V component             -3.17         0.00         3.39        1.327        7.808
   W component             -2.37         0.00         2.85        0.874        5.143
   Horizontal (U&V)        14.50        17.05        19.64        1.018        5.969
   Total                   14.50        17.07        19.65        1.016        5.948

                       Min Reynolds     Mean Reynolds    Max Reynolds    Correlation
   Product             Stress (m/s)^2   Stress (m/s)^2   Stress (m/s)^2  Coefficient
   ----------------    --------------   --------------   --------------  -----------
   u'w'                     -3.545            -0.028             3.786        -0.032
   u'v'                     -7.097             0.337             6.113         0.247
   v'w'                     -3.126             0.273             6.150         0.235


   Friction Velocity (Ustar)  =      0.169 m/s
   Maximum Instantaneous TKE  =      7.840 (m/s)^2
   Maximum Instantaneous CTKE =      3.777 (m/s)^2


Grid Point Variance Summary:

   Y-coord -175.00 -150.00 -125.00 -100.00  -75.00  -50.00  -25.00    0.00   25.00   50.00   75.00  100.00  125.00  150.00  175.00

   Height   Standard deviation at grid points for the u component:
   294.75    1.468   1.053   1.387   1.475   1.195   1.197   1.230   1.147   1.648   1.210   1.586   1.834   1.886   1.375   1.083
   274.07    1.250   1.389   1.403   1.426   1.333   1.052   1.244   1.582   1.705   1.728   1.616   1.873   1.548   1.549   1.331
   253.39    1.343   1.316   1.281   1.410   1.415   0.980   1.109   1.341   1.513   1.497   1.499   1.747   1.878   1.721   1.356
   232.71    1.238   1.269   1.087   1.518   1.478   1.132   1.348   1.435   1.363   1.266   1.645   1.831   1.395   1.684   1.868
   212.04    1.496   1.333   1.186   1.519   1.493   1.445   1.177   1.266   1.200   1.223   1.661   1.847   1.741   1.979   1.652
   191.36    1.511   1.202   1.158   1.374   1.617   1.679   1.540   1.362   1.323   1.572   1.550   1.542   1.607   1.788   1.149
   170.68    1.532   1.240   1.092   1.606   1.369   1.289   1.388   1.224   1.573   1.569   1.238   1.399   1.398   1.491   1.781
   150.00    1.245   1.784   1.974   1.297   1.550   1.301   1.350   1.027   1.340   1.448   1.365   1.443   1.188   1.381   1.557
   129.32    1.365   1.559   1.759   1.707   1.427   1.102   1.532   1.588   1.550   1.202   1.298   1.422   1.424   1.740   1.334
   108.64    1.256   1.105   1.415   1.248   1.172   1.184   1.416   1.412   1.226   1.130   1.280   1.265   1.159   1.576   1.659
    87.96    1.418   1.509   1.297   1.190   1.133   1.197   1.474   1.228   1.206   1.245   1.419   1.044   1.360   1.374   1.508
    67.29    1.271   1.287   0.935   1.081   1.276   1.371   1.415   1.534   1.323   1.585   1.601   1.138   1.163   1.312   1.398
    46.61    1.329   1.185   1.303   1.150   1.226   1.074   1.525   1.620   1.610   1.532   1.223   1.522   1.320   1.315   1.255
    25.93    1.433   1.222   1.151   1.115   1.148   1.280   1.493   1.185   1.296   1.691   1.563   1.349   1.149   1.078   1.173
     5.25    1.439   1.536   1.189   1.236   1.194   1.474   1.724   1.586   1.218   1.405   1.541   1.412   1.236   1.379   1.476

   Height   Standard deviation at grid points for the v component:
   294.75    1.327   1.327   1.327   1.327   1.327   1.327   1.327   1.327   1.327   1.327   1.327   1.327   1.327   1.327   1.327
   274.07    1.327   1.327   1.327   1.327   1.327   1.327   1.327   1.327   1.327   1.327   1.327   1.327   1.327   1.327   1.327
   253.39    1.327   1.327   1.327   1.327   1.327   1.327   1.327   1.327   1.327   1.327   1.327   1.327   1.327   1.327   1.327
   232.71    1.327   1.327   1.327   1.327   1.327   1.327   1.327   1.327   1.327   1.327   1.327   1.327   1.327   1.327   1.327
   212.04    1.327   1.327   1.327   1.327   1.327   1.327   1.327   1.327   1.327   1.327   1.327   1.327   1.327   1.327   1.327
   191.36    1.327   1.327   1.327   1.327   1.327   1.327   1.327   1.327   1.327   1.327   1.327   1.327   1.327   1.327   1.327
   170.68    1.327   1.327   1.327   1.327   1.327   1.327   1.327   1.327   1.327   1.327   1.327   1.327   1.327   1.327   1.327
   150.00    1.327   1.327   1.327   1.327   1.327   1.327   1.327   1.327   1.327   1.327   1.327   1.327   1.327   1.327   1.327
   129.32    1.327   1.327   1.327   1.327   1.327   1.327   1.327   1.327   1.327   1.327   1.327   1.327   1.327   1.327   1.327
   108.64    1.327   1.327   1.327   1.327   1.327   1.327   1.327   1.327   1.327   1.327   1.327   1.327   1.327   1.327   1.327
    87.96    1.327   1.327   1.327   1.327   1.327   1.327   1.327   1.327   1.327   1.327   1.327   1.327   1.327   1.327   1.327
    67.29    1.327   1.327   1.327   1.327   1.327   1.327   1.327   1.327   1.327   1.327   1.327   1.327   1.327   1.327   1.327
    46.61    1.327   1.327   1.327   1.327   1.327   1.327   1.327   1.327   1.327   1.327   1.327   1.327   1.327   1.327   1.327
    25.93    1.327   1.327   1.327   1.327   1.327   1.327   1.327   1.327   1.327   1.327   1.327   1.327   1.327   1.327   1.327
     5.25    1.327   1.327   1.327   1.327   1.327   1.327   1.327   1.327   1.327   1.327   1.327   1.327   1.327   1.327   1.327

   Height   Standard deviation at grid points for the w component:
   294.75    0.874   0.874   0.874   0.874   0.874   0.874   0.874   0.874   0.874   0.874   0.874   0.874   0.874   0.874   0.874
   274.07    0.874   0.874   0.874   0.874   0.874   0.874   0.874   0.874   0.874   0.874   0.874   0.874   0.874   0.874   0.874
   253.39    0.874   0.874   0.874   0.874   0.874   0.874   0.874   0.874   0.874   0.874   0.874   0.874   0.874   0.874   0.874
   232.71    0.874   0.874   0.874   0.874   0.874   0.874   0.874   0.874   0.874   0.874   0.874   0.874   0.874   0.874   0.874
   212.04    0.874   0.874   0.874   0.874   0.874   0.874   0.874   0.874   0.874   0.874   0.874   0.874   0.874   0.874   0.874
   191.36    0.874   0.874   0.874   0.874   0.874   0.874   0.874   0.874   0.874   0.874   0.874   0.874   0.874   0.874   0.874
   170.68    0.874   0.874   0.874   0.874   0.874   0.874   0.874   0.874   0.874   0.874   0.874   0.874   0.874   0.874   0.874
   150.00    0.874   0.874   0.874   0.874   0.874   0.874   0.874   0.874   0.874   0.874   0.874   0.874   0.874   0.874   0.874
   129.32    0.874   0.874   0.874   0.874   0.874   0.874   0.874   0.874   0.874   0.874   0.874   0.874   0.874   0.874   0.874
   108.64    0.874   0.874   0.874   0.874   0.874   0.874   0.874   0.874   0.874   0.874   0.874   0.874   0.874   0.874   0.874
    87.96    0.874   0.874   0.874   0.874   0.874   0.874   0.874   0.874   0.874   0.874   0.874   0.874   0.874   0.874   0.874
    67.29    0.874   0.874   0.874   0.874   0.874   0.874   0.874   0.874   0.874   0.874   0.874   0.874   0.874   0.874   0.874
    46.61    0.874   0.874   0.874   0.874   0.874   0.874   0.874   0.874   0.874   0.874   0.874   0.874   0.874   0.874   0.874
    25.93    0.874   0.874   0.874   0.874   0.874   0.874   0.874   0.874   0.874   0.874   0.874   0.874   0.874   0.874   0.874
     5.25    0.874   0.874   0.874   0.874   0.874   0.874   0.874   0.874   0.874   0.874   0.874   0.874   0.874   0.874   0.874

   Mean standard deviation across all grid points:
      u component:    1.394 m/s
      v component:    1.327 m/s
      w component:    0.874 m/s


U-component (X) statistics from the interpolated hub point:

   Mean =  17.0000 m/s
   TI   =   6.0437 %


Processing complete.  8.4108 CPU seconds used.
