
 **************************************************************************************************
 TurbSim

 Copyright (C) 2023 National Renewable Energy Laboratory
 Copyright (C) 2023 Envision Energy USA LTD

 This program is licensed under Apache License Version 2.0 and comes with ABSOLUTELY NO WARRANTY.
 See the "LICENSE" file distributed with this software for details.
 **************************************************************************************************

  Running TurbSim (from OpenFAST-v3.5.1-607-g88e18ed3)


  Reading the input file "Turbsim_Vhub_41_seednum_961307.Turbsim.Inp".
 TS_ValidateInput:A coherent turbulence time step file cannot be generated with the IECKAI model.
  Calculating the spectral and transfer function matrices:
     u-component matrices (IEC coherence method)
     v-component matrices (identity coherence)
     w-component matrices (identity coherence)
  Generating time series for all points:
     u-component
     v-component
     w-component
  Computing hub-height statistics
  Writing statistics to summary file
  Generating AeroDyn binary time-series file "Turbsim_Vhub_41_seednum_961307.Turbsim.bts"

  Processing complete.  6.5916 CPU seconds used.

  TurbSim terminated normally.

