
This summary file was generated by TurbSim (from OpenFAST-v3.5.1-607-g88e18ed3) on 14-Dec-2024 at 20:00:44.


Runtime Options:

    656411  Random seed #1
    RANLUX  Type of random number generator
         F  Output binary HH turbulence parameters?
         F  Output formatted turbulence parameters?
         F  Output AeroDyn HH files?
         T  Output AeroDyn FF files?
         F  Output BLADED FF files?
         F  Output tower data?
         F  Output HAWC FF files?
         F  Output formatted FF files?
         T  Output coherent turbulence time step file?
 0 -  NONE  IEC turbulence models scaled to exact specified standard deviation


Turbine/Model Specifications:

        15  Vertical grid-point matrix dimension
        15  Horizontal grid-point matrix dimension
     0.100  Time step [seconds]
    60.000  Analysis time [seconds]
    60.000  Usable output time [seconds]
   150.000  Hub height [m]
   289.500  Grid height [m]
   350.000  Grid width [m]
     0.000  Vertical flow angle [degrees]
     0.000  Horizontal flow angle [degrees]


Meteorological Boundary Conditions:

    IECKAI  IEC Kaimal spectral model
         3  IEC standard: IEC 61400-3 Ed. 1: 2006
    11.000  Percent turbulence intensity, IEC 61400-3 Ed. 1: 2006
       NTM  IEC Normal Turbulence Model
       N/A  IEC Extreme Turbulence Model (ETM) "c" parameter [m/s]
       PL   Wind profile type
   150.000  Reference height [m]
    17.000  Reference wind speed [m/s]
       N/A  Jet height [m]
     0.120  Power law exponent
     0.030  Surface roughness length [m]


Non-IEC Meteorological Boundary Conditions:

       N/A  Site latitude [degrees]
       N/A  Gradient Richardson number
       N/A  Friction or shear velocity [m/s]
       N/A  Mixing layer depth [m]
       N/A  Mean hub u'w' Reynolds stress
       N/A  Mean hub u'v' Reynolds stress
       N/A  Mean hub v'w' Reynolds stress


Spatial Coherence Models:

       IEC  u-component coherence model
      NONE  v-component coherence model
      NONE  w-component coherence model
(   12.000, 0.353E-03)  u-component coherence parameters
                   N/A  v-component coherence parameters
                   N/A  w-component coherence parameters
       N/A  Coherence exponent


You have requested that the following file(s) be generated:

   Turbsim_Vhub_17_seednum_656411.Turbsim.bts (AeroDyn/TurbSim full-field wind file)


Turbulence Simulation Scaling Parameter Summary:

   Turbulence model used                            =  IEC Kaimal
   Turbulence characteristic                        =  User-specified
   IEC standard                                     =  IEC 61400-3 Ed. 1: 2006
   Mean wind speed at hub height                    =   17.000 m/s
   Characteristic value of standard deviation       =    1.870 m/s
   Turbulence scale                                 =   42.000 m
   u-component integral scale                       =  340.200 m
   Coherency scale                                  =  340.200 m
   Characteristic value of hub turbulence intensity =   11.000%
   Gradient Richardson number                       =    0.000

   Wind profile type                                =  Power law
   Power law exponent                               =    0.120
   Mean shear across rotor disk                     =    0.024 (m/s)/m
   Assumed rotor diameter                           =  289.500 m
   Surface roughness length                         =    0.030 m

   Nyquist frequency of turbulent wind field        =    5.000 Hz

   Number of time steps in the FFT                  =      600
   Number of time steps output                      =      600
   Number of points simulated                       =      225


Mean Flow Angles:

   Vertical   =   0.0 degrees
   Horizontal =   0.0 degrees

Mean Wind Speed Profile:

   Height    Wind Speed   Horizontal Angle  Vertical Angle  U-comp (X)   V-comp (Y)   W-comp (Z)
     (m)        (m/s)         (degrees)       (degrees)       (m/s)        (m/s)        (m/s)   
   ------    ----------   ----------------  --------------  ----------   ----------   ----------
    294.8       18.44            0.00            0.00         18.44         0.00         0.00
    274.1       18.28            0.00            0.00         18.28         0.00         0.00
    253.4       18.10            0.00            0.00         18.10         0.00         0.00
    232.7       17.92            0.00            0.00         17.92         0.00         0.00
    212.0       17.72            0.00            0.00         17.72         0.00         0.00
    191.4       17.50            0.00            0.00         17.50         0.00         0.00
    170.7       17.27            0.00            0.00         17.27         0.00         0.00
    150.0       17.00            0.00            0.00         17.00         0.00         0.00
    129.3       16.70            0.00            0.00         16.70         0.00         0.00
    108.6       16.35            0.00            0.00         16.35         0.00         0.00
     88.0       15.95            0.00            0.00         15.95         0.00         0.00
     67.3       15.44            0.00            0.00         15.44         0.00         0.00
     46.6       14.78            0.00            0.00         14.78         0.00         0.00
     25.9       13.77            0.00            0.00         13.77         0.00         0.00
      5.2       11.37            0.00            0.00         11.37         0.00         0.00


Harvested Random Seeds after Generation of the Random Numbers:

      1881463 K 1
            0 K 2


Hub-Height Simulated Turbulence Statistical Summary:

   Type of Wind        Min (m/s)   Mean (m/s)    Max (m/s)  Sigma (m/s)       TI (%)
   ----------------    ---------   ----------    ---------  -----------       ------
   Longitudinal (u)        11.78        17.00        19.83        1.668        9.811
   Lateral (v)             -3.93         0.00         3.77        1.327        7.808
   Vertical (w)            -2.87         0.00         2.61        0.874        5.143
   U component             11.78        17.00        19.83        1.668        9.811
   V component             -3.93         0.00         3.77        1.327        7.808
   W component             -2.87         0.00         2.61        0.874        5.143
   Horizontal (U&V)        11.80        17.05        19.83        1.660        9.732
   Total                   11.88        17.07        19.88        1.661        9.729

                       Min Reynolds     Mean Reynolds    Max Reynolds    Correlation
   Product             Stress (m/s)^2   Stress (m/s)^2   Stress (m/s)^2  Coefficient
   ----------------    --------------   --------------   --------------  -----------
   u'w'                     -7.722            -0.093             7.308        -0.064
   u'v'                    -10.450            -0.478             4.666        -0.216
   v'w'                     -4.415             0.066             3.728         0.057


   Friction Velocity (Ustar)  =      0.305 m/s
   Maximum Instantaneous TKE  =     14.782 (m/s)^2
   Maximum Instantaneous CTKE =      5.264 (m/s)^2


Grid Point Variance Summary:

   Y-coord -175.00 -150.00 -125.00 -100.00  -75.00  -50.00  -25.00    0.00   25.00   50.00   75.00  100.00  125.00  150.00  175.00

   Height   Standard deviation at grid points for the u component:
   294.75    1.388   1.643   1.347   1.339   1.401   1.336   1.119   1.628   2.033   2.468   2.061   2.002   1.782   1.708   1.487
   274.07    1.678   1.377   1.569   1.317   1.381   1.218   1.487   1.357   1.791   2.255   2.186   2.161   1.913   1.426   1.517
   253.39    1.533   1.361   1.271   1.480   1.433   0.994   1.444   1.412   1.643   1.933   1.781   1.517   1.952   1.932   1.280
   232.71    1.294   1.367   1.717   1.532   1.528   1.161   1.194   1.578   1.965   1.801   1.683   1.566   1.890   1.688   1.137
   212.04    1.623   1.944   1.978   1.404   1.181   1.302   1.300   1.244   1.993   1.886   1.583   1.482   1.647   1.431   1.462
   191.36    1.485   1.445   1.645   1.465   1.773   1.334   1.351   1.759   1.922   2.046   1.716   1.195   1.609   2.021   1.550
   170.68    1.416   1.282   1.228   1.203   1.279   1.713   1.390   1.583   1.872   1.711   1.377   1.434   1.685   1.809   1.786
   150.00    1.466   1.139   1.229   1.027   1.392   1.355   1.255   1.668   1.684   1.236   1.537   1.618   1.486   1.506   1.463
   129.32    1.392   1.017   0.974   1.431   1.287   1.158   1.299   1.367   1.335   1.217   1.760   1.978   1.840   1.769   1.365
   108.64    1.714   1.428   1.184   1.188   1.513   1.276   1.100   1.417   1.527   1.179   1.621   1.790   1.832   1.713   1.715
    87.96    1.885   1.117   0.968   1.328   1.625   1.477   0.968   1.432   1.680   1.382   1.236   1.505   1.288   1.255   1.702
    67.29    1.799   1.285   1.355   1.209   1.502   1.546   1.538   1.312   1.438   1.627   1.434   1.166   1.400   1.271   1.550
    46.61    1.523   1.591   1.150   1.204   1.370   1.267   1.697   1.586   1.252   1.230   1.643   1.398   1.335   1.255   1.196
    25.93    1.317   1.348   1.160   1.051   1.184   1.186   1.471   1.452   1.476   1.350   1.603   1.609   1.252   1.136   1.101
     5.25    1.439   1.189   1.215   1.303   1.083   1.216   1.292   1.339   1.521   1.631   1.195   1.359   1.132   1.194   1.400

   Height   Standard deviation at grid points for the v component:
   294.75    1.327   1.327   1.327   1.327   1.327   1.327   1.327   1.327   1.327   1.327   1.327   1.327   1.327   1.327   1.327
   274.07    1.327   1.327   1.327   1.327   1.327   1.327   1.327   1.327   1.327   1.327   1.327   1.327   1.327   1.327   1.327
   253.39    1.327   1.327   1.327   1.327   1.327   1.327   1.327   1.327   1.327   1.327   1.327   1.327   1.327   1.327   1.327
   232.71    1.327   1.327   1.327   1.327   1.327   1.327   1.327   1.327   1.327   1.327   1.327   1.327   1.327   1.327   1.327
   212.04    1.327   1.327   1.327   1.327   1.327   1.327   1.327   1.327   1.327   1.327   1.327   1.327   1.327   1.327   1.327
   191.36    1.327   1.327   1.327   1.327   1.327   1.327   1.327   1.327   1.327   1.327   1.327   1.327   1.327   1.327   1.327
   170.68    1.327   1.327   1.327   1.327   1.327   1.327   1.327   1.327   1.327   1.327   1.327   1.327   1.327   1.327   1.327
   150.00    1.327   1.327   1.327   1.327   1.327   1.327   1.327   1.327   1.327   1.327   1.327   1.327   1.327   1.327   1.327
   129.32    1.327   1.327   1.327   1.327   1.327   1.327   1.327   1.327   1.327   1.327   1.327   1.327   1.327   1.327   1.327
   108.64    1.327   1.327   1.327   1.327   1.327   1.327   1.327   1.327   1.327   1.327   1.327   1.327   1.327   1.327   1.327
    87.96    1.327   1.327   1.327   1.327   1.327   1.327   1.327   1.327   1.327   1.327   1.327   1.327   1.327   1.327   1.327
    67.29    1.327   1.327   1.327   1.327   1.327   1.327   1.327   1.327   1.327   1.327   1.327   1.327   1.327   1.327   1.327
    46.61    1.327   1.327   1.327   1.327   1.327   1.327   1.327   1.327   1.327   1.327   1.327   1.327   1.327   1.327   1.327
    25.93    1.327   1.327   1.327   1.327   1.327   1.327   1.327   1.327   1.327   1.327   1.327   1.327   1.327   1.327   1.327
     5.25    1.327   1.327   1.327   1.327   1.327   1.327   1.327   1.327   1.327   1.327   1.327   1.327   1.327   1.327   1.327

   Height   Standard deviation at grid points for the w component:
   294.75    0.874   0.874   0.874   0.874   0.874   0.874   0.874   0.874   0.874   0.874   0.874   0.874   0.874   0.874   0.874
   274.07    0.874   0.874   0.874   0.874   0.874   0.874   0.874   0.874   0.874   0.874   0.874   0.874   0.874   0.874   0.874
   253.39    0.874   0.874   0.874   0.874   0.874   0.874   0.874   0.874   0.874   0.874   0.874   0.874   0.874   0.874   0.874
   232.71    0.874   0.874   0.874   0.874   0.874   0.874   0.874   0.874   0.874   0.874   0.874   0.874   0.874   0.874   0.874
   212.04    0.874   0.874   0.874   0.874   0.874   0.874   0.874   0.874   0.874   0.874   0.874   0.874   0.874   0.874   0.874
   191.36    0.874   0.874   0.874   0.874   0.874   0.874   0.874   0.874   0.874   0.874   0.874   0.874   0.874   0.874   0.874
   170.68    0.874   0.874   0.874   0.874   0.874   0.874   0.874   0.874   0.874   0.874   0.874   0.874   0.874   0.874   0.874
   150.00    0.874   0.874   0.874   0.874   0.874   0.874   0.874   0.874   0.874   0.874   0.874   0.874   0.874   0.874   0.874
   129.32    0.874   0.874   0.874   0.874   0.874   0.874   0.874   0.874   0.874   0.874   0.874   0.874   0.874   0.874   0.874
   108.64    0.874   0.874   0.874   0.874   0.874   0.874   0.874   0.874   0.874   0.874   0.874   0.874   0.874   0.874   0.874
    87.96    0.874   0.874   0.874   0.874   0.874   0.874   0.874   0.874   0.874   0.874   0.874   0.874   0.874   0.874   0.874
    67.29    0.874   0.874   0.874   0.874   0.874   0.874   0.874   0.874   0.874   0.874   0.874   0.874   0.874   0.874   0.874
    46.61    0.874   0.874   0.874   0.874   0.874   0.874   0.874   0.874   0.874   0.874   0.874   0.874   0.874   0.874   0.874
    25.93    0.874   0.874   0.874   0.874   0.874   0.874   0.874   0.874   0.874   0.874   0.874   0.874   0.874   0.874   0.874
     5.25    0.874   0.874   0.874   0.874   0.874   0.874   0.874   0.874   0.874   0.874   0.874   0.874   0.874   0.874   0.874

   Mean standard deviation across all grid points:
      u component:    1.478 m/s
      v component:    1.327 m/s
      w component:    0.874 m/s


U-component (X) statistics from the interpolated hub point:

   Mean =  17.0000 m/s
   TI   =   9.8111 %


Processing complete.  7.1581 CPU seconds used.
