
This summary file was generated by TurbSim (from OpenFAST-v3.5.1-607-g88e18ed3) on 14-Dec-2024 at 20:02:11.


Runtime Options:

    747715  Random seed #1
    RANLUX  Type of random number generator
         F  Output binary HH turbulence parameters?
         F  Output formatted turbulence parameters?
         F  Output AeroDyn HH files?
         T  Output AeroDyn FF files?
         F  Output BLADED FF files?
         F  Output tower data?
         F  Output HAWC FF files?
         F  Output formatted FF files?
         T  Output coherent turbulence time step file?
 0 -  NONE  IEC turbulence models scaled to exact specified standard deviation


Turbine/Model Specifications:

        15  Vertical grid-point matrix dimension
        15  Horizontal grid-point matrix dimension
     0.100  Time step [seconds]
    60.000  Analysis time [seconds]
    60.000  Usable output time [seconds]
   150.000  Hub height [m]
   289.500  Grid height [m]
   350.000  Grid width [m]
     0.000  Vertical flow angle [degrees]
     0.000  Horizontal flow angle [degrees]


Meteorological Boundary Conditions:

    IECKAI  IEC Kaimal spectral model
         3  IEC standard: IEC 61400-3 Ed. 1: 2006
    11.000  Percent turbulence intensity, IEC 61400-3 Ed. 1: 2006
       NTM  IEC Normal Turbulence Model
       N/A  IEC Extreme Turbulence Model (ETM) "c" parameter [m/s]
       PL   Wind profile type
   150.000  Reference height [m]
    33.000  Reference wind speed [m/s]
       N/A  Jet height [m]
     0.120  Power law exponent
     0.030  Surface roughness length [m]


Non-IEC Meteorological Boundary Conditions:

       N/A  Site latitude [degrees]
       N/A  Gradient Richardson number
       N/A  Friction or shear velocity [m/s]
       N/A  Mixing layer depth [m]
       N/A  Mean hub u'w' Reynolds stress
       N/A  Mean hub u'v' Reynolds stress
       N/A  Mean hub v'w' Reynolds stress


Spatial Coherence Models:

       IEC  u-component coherence model
      NONE  v-component coherence model
      NONE  w-component coherence model
(   12.000, 0.353E-03)  u-component coherence parameters
                   N/A  v-component coherence parameters
                   N/A  w-component coherence parameters
       N/A  Coherence exponent


You have requested that the following file(s) be generated:

   Turbsim_Vhub_33_seednum_747715.Turbsim.bts (AeroDyn/TurbSim full-field wind file)


Turbulence Simulation Scaling Parameter Summary:

   Turbulence model used                            =  IEC Kaimal
   Turbulence characteristic                        =  User-specified
   IEC standard                                     =  IEC 61400-3 Ed. 1: 2006
   Mean wind speed at hub height                    =   33.000 m/s
   Characteristic value of standard deviation       =    3.630 m/s
   Turbulence scale                                 =   42.000 m
   u-component integral scale                       =  340.200 m
   Coherency scale                                  =  340.200 m
   Characteristic value of hub turbulence intensity =   11.000%
   Gradient Richardson number                       =    0.000

   Wind profile type                                =  Power law
   Power law exponent                               =    0.120
   Mean shear across rotor disk                     =    0.047 (m/s)/m
   Assumed rotor diameter                           =  289.500 m
   Surface roughness length                         =    0.030 m

   Nyquist frequency of turbulent wind field        =    5.000 Hz

   Number of time steps in the FFT                  =      600
   Number of time steps output                      =      600
   Number of points simulated                       =      225


Mean Flow Angles:

   Vertical   =   0.0 degrees
   Horizontal =   0.0 degrees

Mean Wind Speed Profile:

   Height    Wind Speed   Horizontal Angle  Vertical Angle  U-comp (X)   V-comp (Y)   W-comp (Z)
     (m)        (m/s)         (degrees)       (degrees)       (m/s)        (m/s)        (m/s)   
   ------    ----------   ----------------  --------------  ----------   ----------   ----------
    294.8       35.79            0.00            0.00         35.79         0.00         0.00
    274.1       35.48            0.00            0.00         35.48         0.00         0.00
    253.4       35.14            0.00            0.00         35.14         0.00         0.00
    232.7       34.79            0.00            0.00         34.79         0.00         0.00
    212.0       34.40            0.00            0.00         34.40         0.00         0.00
    191.4       33.98            0.00            0.00         33.98         0.00         0.00
    170.7       33.52            0.00            0.00         33.52         0.00         0.00
    150.0       33.00            0.00            0.00         33.00         0.00         0.00
    129.3       32.42            0.00            0.00         32.42         0.00         0.00
    108.6       31.75            0.00            0.00         31.75         0.00         0.00
     88.0       30.95            0.00            0.00         30.95         0.00         0.00
     67.3       29.97            0.00            0.00         29.97         0.00         0.00
     46.6       28.68            0.00            0.00         28.68         0.00         0.00
     25.9       26.73            0.00            0.00         26.73         0.00         0.00
      5.2       22.07            0.00            0.00         22.07         0.00         0.00


Harvested Random Seeds after Generation of the Random Numbers:

      1881463 K 1
            0 K 2


Hub-Height Simulated Turbulence Statistical Summary:

   Type of Wind        Min (m/s)   Mean (m/s)    Max (m/s)  Sigma (m/s)       TI (%)
   ----------------    ---------   ----------    ---------  -----------       ------
   Longitudinal (u)        26.43        33.00        42.50        3.517       10.659
   Lateral (v)             -7.57         0.00         7.26        2.679        8.118
   Vertical (w)            -4.65         0.00         5.08        1.682        5.098
   U component             26.43        33.00        42.50        3.517       10.659
   V component             -7.57         0.00         7.26        2.679        8.118
   W component             -4.65         0.00         5.08        1.682        5.098
   Horizontal (U&V)        26.47        33.11        42.53        3.498       10.564
   Total                   26.47        33.15        42.53        3.488       10.520

                       Min Reynolds     Mean Reynolds    Max Reynolds    Correlation
   Product             Stress (m/s)^2   Stress (m/s)^2   Stress (m/s)^2  Coefficient
   ----------------    --------------   --------------   --------------  -----------
   u'w'                    -22.142            -0.149            22.624        -0.025
   u'v'                    -31.578            -1.696            22.332        -0.180
   v'w'                    -25.116             0.117            17.512         0.026


   Friction Velocity (Ustar)  =      0.387 m/s
   Maximum Instantaneous TKE  =     46.713 (m/s)^2
   Maximum Instantaneous CTKE =     16.763 (m/s)^2


Grid Point Variance Summary:

   Y-coord -175.00 -150.00 -125.00 -100.00  -75.00  -50.00  -25.00    0.00   25.00   50.00   75.00  100.00  125.00  150.00  175.00

   Height   Standard deviation at grid points for the u component:
   294.75    2.649   2.485   2.345   2.823   2.426   2.420   2.719   2.661   3.250   3.211   3.156   2.748   2.945   2.259   2.280
   274.07    2.730   2.257   2.834   3.257   2.585   2.617   2.431   2.809   3.396   3.048   2.922   3.415   2.508   2.340   2.385
   253.39    3.182   2.869   2.463   2.459   3.084   2.610   3.089   3.326   2.986   2.695   3.346   3.088   2.815   2.973   3.264
   232.71    2.861   2.739   2.805   2.130   2.931   3.386   2.897   3.177   2.615   2.770   3.268   2.764   2.200   2.609   3.082
   212.04    2.471   2.869   2.540   2.459   2.726   3.018   2.845   3.185   2.843   2.437   2.683   2.944   2.759   3.080   2.809
   191.36    3.081   2.945   2.341   2.231   2.391   3.176   2.925   2.889   2.782   2.811   2.457   2.580   2.618   3.430   3.701
   170.68    2.879   2.660   2.775   2.620   2.547   3.008   3.524   2.759   3.057   2.841   2.300   2.617   2.509   3.009   3.381
   150.00    2.427   2.957   2.967   2.247   2.440   2.567   3.307   3.517   2.832   2.677   2.683   2.629   2.262   2.668   2.940
   129.32    2.774   3.084   3.350   2.809   2.468   2.708   3.508   3.723   3.408   3.729   2.903   2.798   2.790   2.906   3.015
   108.64    3.716   3.869   3.742   3.919   3.241   2.907   3.497   3.295   3.386   3.372   3.435   2.998   2.793   2.892   2.923
    87.96    4.046   4.144   3.818   4.257   3.363   2.407   3.353   3.048   2.612   3.210   2.831   2.825   2.582   2.892   2.926
    67.29    3.802   4.175   4.459   3.657   3.610   3.550   3.682   2.729   3.083   3.134   2.910   2.886   2.607   2.919   3.390
    46.61    3.863   4.027   3.812   3.445   3.473   3.928   3.430   3.268   2.791   2.881   3.156   2.852   2.752   2.544   3.213
    25.93    3.531   3.353   3.576   3.671   3.485   3.520   3.151   3.086   2.712   2.919   2.793   2.938   2.929   2.916   2.778
     5.25    3.083   3.252   3.569   3.018   3.479   3.117   3.326   3.118   3.093   2.258   2.702   2.809   2.737   2.767   2.934

   Height   Standard deviation at grid points for the v component:
   294.75    2.679   2.679   2.679   2.679   2.679   2.679   2.679   2.679   2.679   2.679   2.679   2.679   2.679   2.679   2.679
   274.07    2.679   2.679   2.679   2.679   2.679   2.679   2.679   2.679   2.679   2.679   2.679   2.679   2.679   2.679   2.679
   253.39    2.679   2.679   2.679   2.679   2.679   2.679   2.679   2.679   2.679   2.679   2.679   2.679   2.679   2.679   2.679
   232.71    2.679   2.679   2.679   2.679   2.679   2.679   2.679   2.679   2.679   2.679   2.679   2.679   2.679   2.679   2.679
   212.04    2.679   2.679   2.679   2.679   2.679   2.679   2.679   2.679   2.679   2.679   2.679   2.679   2.679   2.679   2.679
   191.36    2.679   2.679   2.679   2.679   2.679   2.679   2.679   2.679   2.679   2.679   2.679   2.679   2.679   2.679   2.679
   170.68    2.679   2.679   2.679   2.679   2.679   2.679   2.679   2.679   2.679   2.679   2.679   2.679   2.679   2.679   2.679
   150.00    2.679   2.679   2.679   2.679   2.679   2.679   2.679   2.679   2.679   2.679   2.679   2.679   2.679   2.679   2.679
   129.32    2.679   2.679   2.679   2.679   2.679   2.679   2.679   2.679   2.679   2.679   2.679   2.679   2.679   2.679   2.679
   108.64    2.679   2.679   2.679   2.679   2.679   2.679   2.679   2.679   2.679   2.679   2.679   2.679   2.679   2.679   2.679
    87.96    2.679   2.679   2.679   2.679   2.679   2.679   2.679   2.679   2.679   2.679   2.679   2.679   2.679   2.679   2.679
    67.29    2.679   2.679   2.679   2.679   2.679   2.679   2.679   2.679   2.679   2.679   2.679   2.679   2.679   2.679   2.679
    46.61    2.679   2.679   2.679   2.679   2.679   2.679   2.679   2.679   2.679   2.679   2.679   2.679   2.679   2.679   2.679
    25.93    2.679   2.679   2.679   2.679   2.679   2.679   2.679   2.679   2.679   2.679   2.679   2.679   2.679   2.679   2.679
     5.25    2.679   2.679   2.679   2.679   2.679   2.679   2.679   2.679   2.679   2.679   2.679   2.679   2.679   2.679   2.679

   Height   Standard deviation at grid points for the w component:
   294.75    1.682   1.682   1.682   1.682   1.682   1.682   1.682   1.682   1.682   1.682   1.682   1.682   1.682   1.682   1.682
   274.07    1.682   1.682   1.682   1.682   1.682   1.682   1.682   1.682   1.682   1.682   1.682   1.682   1.682   1.682   1.682
   253.39    1.682   1.682   1.682   1.682   1.682   1.682   1.682   1.682   1.682   1.682   1.682   1.682   1.682   1.682   1.682
   232.71    1.682   1.682   1.682   1.682   1.682   1.682   1.682   1.682   1.682   1.682   1.682   1.682   1.682   1.682   1.682
   212.04    1.682   1.682   1.682   1.682   1.682   1.682   1.682   1.682   1.682   1.682   1.682   1.682   1.682   1.682   1.682
   191.36    1.682   1.682   1.682   1.682   1.682   1.682   1.682   1.682   1.682   1.682   1.682   1.682   1.682   1.682   1.682
   170.68    1.682   1.682   1.682   1.682   1.682   1.682   1.682   1.682   1.682   1.682   1.682   1.682   1.682   1.682   1.682
   150.00    1.682   1.682   1.682   1.682   1.682   1.682   1.682   1.682   1.682   1.682   1.682   1.682   1.682   1.682   1.682
   129.32    1.682   1.682   1.682   1.682   1.682   1.682   1.682   1.682   1.682   1.682   1.682   1.682   1.682   1.682   1.682
   108.64    1.682   1.682   1.682   1.682   1.682   1.682   1.682   1.682   1.682   1.682   1.682   1.682   1.682   1.682   1.682
    87.96    1.682   1.682   1.682   1.682   1.682   1.682   1.682   1.682   1.682   1.682   1.682   1.682   1.682   1.682   1.682
    67.29    1.682   1.682   1.682   1.682   1.682   1.682   1.682   1.682   1.682   1.682   1.682   1.682   1.682   1.682   1.682
    46.61    1.682   1.682   1.682   1.682   1.682   1.682   1.682   1.682   1.682   1.682   1.682   1.682   1.682   1.682   1.682
    25.93    1.682   1.682   1.682   1.682   1.682   1.682   1.682   1.682   1.682   1.682   1.682   1.682   1.682   1.682   1.682
     5.25    1.682   1.682   1.682   1.682   1.682   1.682   1.682   1.682   1.682   1.682   1.682   1.682   1.682   1.682   1.682

   Mean standard deviation across all grid points:
      u component:    2.991 m/s
      v component:    2.679 m/s
      w component:    1.682 m/s


U-component (X) statistics from the interpolated hub point:

   Mean =  33.0000 m/s
   TI   =  10.6586 %


Processing complete.  8.1675 CPU seconds used.
