
This summary file was generated by TurbSim (from OpenFAST-v3.5.1-607-g88e18ed3) on 14-Dec-2024 at 20:01:57.


Runtime Options:

    748907  Random seed #1
    RANLUX  Type of random number generator
         F  Output binary HH turbulence parameters?
         F  Output formatted turbulence parameters?
         F  Output AeroDyn HH files?
         T  Output AeroDyn FF files?
         F  Output BLADED FF files?
         F  Output tower data?
         F  Output HAWC FF files?
         F  Output formatted FF files?
         T  Output coherent turbulence time step file?
 0 -  NONE  IEC turbulence models scaled to exact specified standard deviation


Turbine/Model Specifications:

        15  Vertical grid-point matrix dimension
        15  Horizontal grid-point matrix dimension
     0.100  Time step [seconds]
    60.000  Analysis time [seconds]
    60.000  Usable output time [seconds]
   150.000  Hub height [m]
   289.500  Grid height [m]
   350.000  Grid width [m]
     0.000  Vertical flow angle [degrees]
     0.000  Horizontal flow angle [degrees]


Meteorological Boundary Conditions:

    IECKAI  IEC Kaimal spectral model
         3  IEC standard: IEC 61400-3 Ed. 1: 2006
    11.000  Percent turbulence intensity, IEC 61400-3 Ed. 1: 2006
       NTM  IEC Normal Turbulence Model
       N/A  IEC Extreme Turbulence Model (ETM) "c" parameter [m/s]
       PL   Wind profile type
   150.000  Reference height [m]
    81.000  Reference wind speed [m/s]
       N/A  Jet height [m]
     0.120  Power law exponent
     0.030  Surface roughness length [m]


Non-IEC Meteorological Boundary Conditions:

       N/A  Site latitude [degrees]
       N/A  Gradient Richardson number
       N/A  Friction or shear velocity [m/s]
       N/A  Mixing layer depth [m]
       N/A  Mean hub u'w' Reynolds stress
       N/A  Mean hub u'v' Reynolds stress
       N/A  Mean hub v'w' Reynolds stress


Spatial Coherence Models:

       IEC  u-component coherence model
      NONE  v-component coherence model
      NONE  w-component coherence model
(   12.000, 0.353E-03)  u-component coherence parameters
                   N/A  v-component coherence parameters
                   N/A  w-component coherence parameters
       N/A  Coherence exponent


You have requested that the following file(s) be generated:

   Turbsim_Vhub_81_seednum_748907.Turbsim.bts (AeroDyn/TurbSim full-field wind file)


Turbulence Simulation Scaling Parameter Summary:

   Turbulence model used                            =  IEC Kaimal
   Turbulence characteristic                        =  User-specified
   IEC standard                                     =  IEC 61400-3 Ed. 1: 2006
   Mean wind speed at hub height                    =   81.000 m/s
   Characteristic value of standard deviation       =    8.910 m/s
   Turbulence scale                                 =   42.000 m
   u-component integral scale                       =  340.200 m
   Coherency scale                                  =  340.200 m
   Characteristic value of hub turbulence intensity =   11.000%
   Gradient Richardson number                       =    0.000

   Wind profile type                                =  Power law
   Power law exponent                               =    0.120
   Mean shear across rotor disk                     =    0.116 (m/s)/m
   Assumed rotor diameter                           =  289.500 m
   Surface roughness length                         =    0.030 m

   Nyquist frequency of turbulent wind field        =    5.000 Hz

   Number of time steps in the FFT                  =      600
   Number of time steps output                      =      600
   Number of points simulated                       =      225


Mean Flow Angles:

   Vertical   =   0.0 degrees
   Horizontal =   0.0 degrees

Mean Wind Speed Profile:

   Height    Wind Speed   Horizontal Angle  Vertical Angle  U-comp (X)   V-comp (Y)   W-comp (Z)
     (m)        (m/s)         (degrees)       (degrees)       (m/s)        (m/s)        (m/s)   
   ------    ----------   ----------------  --------------  ----------   ----------   ----------
    294.8       87.84            0.00            0.00         87.84         0.00         0.00
    274.1       87.08            0.00            0.00         87.08         0.00         0.00
    253.4       86.26            0.00            0.00         86.26         0.00         0.00
    232.7       85.38            0.00            0.00         85.38         0.00         0.00
    212.0       84.44            0.00            0.00         84.44         0.00         0.00
    191.4       83.40            0.00            0.00         83.40         0.00         0.00
    170.7       82.27            0.00            0.00         82.27         0.00         0.00
    150.0       81.00            0.00            0.00         81.00         0.00         0.00
    129.3       79.57            0.00            0.00         79.57         0.00         0.00
    108.6       77.92            0.00            0.00         77.92         0.00         0.00
     88.0       75.98            0.00            0.00         75.98         0.00         0.00
     67.3       73.57            0.00            0.00         73.57         0.00         0.00
     46.6       70.40            0.00            0.00         70.40         0.00         0.00
     25.9       65.62            0.00            0.00         65.62         0.00         0.00
      5.2       54.17            0.00            0.00         54.17         0.00         0.00


Harvested Random Seeds after Generation of the Random Numbers:

      1881463 K 1
            0 K 2


Hub-Height Simulated Turbulence Statistical Summary:

   Type of Wind        Min (m/s)   Mean (m/s)    Max (m/s)  Sigma (m/s)       TI (%)
   ----------------    ---------   ----------    ---------  -----------       ------
   Longitudinal (u)        56.94        81.00       102.55        7.589        9.369
   Lateral (v)            -18.81        -0.00        17.42        6.662        8.225
   Vertical (w)           -11.42        -0.00        11.87        3.958        4.887
   U component             56.94        81.00       102.55        7.589        9.369
   V component            -18.81        -0.00        17.42        6.662        8.225
   W component            -11.42        -0.00        11.87        3.958        4.887
   Horizontal (U&V)        57.80        81.28       102.61        7.541        9.279
   Total                   57.91        81.37       102.61        7.540        9.266

                       Min Reynolds     Mean Reynolds    Max Reynolds    Correlation
   Product             Stress (m/s)^2   Stress (m/s)^2   Stress (m/s)^2  Coefficient
   ----------------    --------------   --------------   --------------  -----------
   u'w'                   -123.351            -1.874           111.662        -0.062
   u'v'                   -176.323             2.663           268.738         0.053
   v'w'                   -145.167            -2.849           159.415        -0.108


   Friction Velocity (Ustar)  =      1.369 m/s
   Maximum Instantaneous TKE  =    344.663 (m/s)^2
   Maximum Instantaneous CTKE =    134.369 (m/s)^2


Grid Point Variance Summary:

   Y-coord -175.00 -150.00 -125.00 -100.00  -75.00  -50.00  -25.00    0.00   25.00   50.00   75.00  100.00  125.00  150.00  175.00

   Height   Standard deviation at grid points for the u component:
   294.75    6.993   7.185   7.715   6.678   6.298   7.034   7.150   7.584   7.347   7.766   7.398   7.214   7.255   8.062   8.975
   274.07    7.137   7.570   7.646   7.234   6.254   6.970   7.703   8.468   8.016   7.228   7.778   7.864   7.927   7.754   8.782
   253.39    6.853   7.102   7.386   7.885   6.599   6.635   7.850   7.950   8.514   7.242   7.582   8.622   7.525   8.127   9.079
   232.71    6.826   7.400   9.078   8.260   8.291   7.625   7.944   8.498   7.837   7.324   7.202   7.130   7.239   8.331   8.427
   212.04    6.572   7.291   8.815   9.695   9.388   8.568   8.054   7.585   6.896   7.564   7.203   7.361   7.621   7.657   7.420
   191.36    6.846   7.789   9.145   9.521   8.867   8.148   8.940   8.743   7.280   7.474   7.017   7.217   7.544   6.953   8.157
   170.68    7.342   8.134   8.827   8.762   9.127   8.949   8.274   8.405   8.472   7.180   8.118   8.309   9.056   7.943   8.052
   150.00    8.595   8.394   8.467   8.719   8.108   9.311   7.907   7.589   7.881   7.421   8.490   7.861   7.820   7.880   7.462
   129.32    9.183   9.347   7.973   9.191   9.432   8.908   7.560   7.656   7.671   7.583   7.500   7.383   7.260   7.685   8.170
   108.64    8.819   9.127   8.812   9.644   8.795   8.604   8.215   7.092   6.993   7.473   7.533   6.376   6.569   8.035   8.574
    87.96    8.848   9.659   8.692   9.138   9.074   8.285   8.800   7.313   7.728   8.329   7.707   6.446   6.543   6.887   8.113
    67.29    9.236  10.094   8.202   8.726   9.229   8.811   7.410   8.171   7.559   7.256   6.747   6.311   6.908   7.679   7.295
    46.61    8.427   9.930   8.826   9.272   8.630   8.624   8.350   8.381   7.237   6.905   6.853   6.470   7.081   7.046   7.482
    25.93    8.593   8.686   9.921   8.411   8.024   7.951   7.694   7.852   6.470   6.405   5.780   6.435   6.592   7.269   6.168
     5.25    8.148   8.207   9.499   8.551   8.616   7.154   7.512   7.373   7.261   6.833   5.842   7.068   8.210   7.494   6.579

   Height   Standard deviation at grid points for the v component:
   294.75    6.662   6.662   6.662   6.662   6.662   6.662   6.662   6.662   6.662   6.662   6.662   6.662   6.662   6.662   6.662
   274.07    6.662   6.662   6.662   6.662   6.662   6.662   6.662   6.662   6.662   6.662   6.662   6.662   6.662   6.662   6.662
   253.39    6.662   6.662   6.662   6.662   6.662   6.662   6.662   6.662   6.662   6.662   6.662   6.662   6.662   6.662   6.662
   232.71    6.662   6.662   6.662   6.662   6.662   6.662   6.662   6.662   6.662   6.662   6.662   6.662   6.662   6.662   6.662
   212.04    6.662   6.662   6.662   6.662   6.662   6.662   6.662   6.662   6.662   6.662   6.662   6.662   6.662   6.662   6.662
   191.36    6.662   6.662   6.662   6.662   6.662   6.662   6.662   6.662   6.662   6.662   6.662   6.662   6.662   6.662   6.662
   170.68    6.662   6.662   6.662   6.662   6.662   6.662   6.662   6.662   6.662   6.662   6.662   6.662   6.662   6.662   6.662
   150.00    6.662   6.662   6.662   6.662   6.662   6.662   6.662   6.662   6.662   6.662   6.662   6.662   6.662   6.662   6.662
   129.32    6.662   6.662   6.662   6.662   6.662   6.662   6.662   6.662   6.662   6.662   6.662   6.662   6.662   6.662   6.662
   108.64    6.662   6.662   6.662   6.662   6.662   6.662   6.662   6.662   6.662   6.662   6.662   6.662   6.662   6.662   6.662
    87.96    6.662   6.662   6.662   6.662   6.662   6.662   6.662   6.662   6.662   6.662   6.662   6.662   6.662   6.662   6.662
    67.29    6.662   6.662   6.662   6.662   6.662   6.662   6.662   6.662   6.662   6.662   6.662   6.662   6.662   6.662   6.662
    46.61    6.662   6.662   6.662   6.662   6.662   6.662   6.662   6.662   6.662   6.662   6.662   6.662   6.662   6.662   6.662
    25.93    6.662   6.662   6.662   6.662   6.662   6.662   6.662   6.662   6.662   6.662   6.662   6.662   6.662   6.662   6.662
     5.25    6.662   6.662   6.662   6.662   6.662   6.662   6.662   6.662   6.662   6.662   6.662   6.662   6.662   6.662   6.662

   Height   Standard deviation at grid points for the w component:
   294.75    3.958   3.958   3.958   3.958   3.958   3.958   3.958   3.958   3.958   3.958   3.958   3.958   3.958   3.958   3.958
   274.07    3.958   3.958   3.958   3.958   3.958   3.958   3.958   3.958   3.958   3.958   3.958   3.958   3.958   3.958   3.958
   253.39    3.958   3.958   3.958   3.958   3.958   3.958   3.958   3.958   3.958   3.958   3.958   3.958   3.958   3.958   3.958
   232.71    3.958   3.958   3.958   3.958   3.958   3.958   3.958   3.958   3.958   3.958   3.958   3.958   3.958   3.958   3.958
   212.04    3.958   3.958   3.958   3.958   3.958   3.958   3.958   3.958   3.958   3.958   3.958   3.958   3.958   3.958   3.958
   191.36    3.958   3.958   3.958   3.958   3.958   3.958   3.958   3.958   3.958   3.958   3.958   3.958   3.958   3.958   3.958
   170.68    3.958   3.958   3.958   3.958   3.958   3.958   3.958   3.958   3.958   3.958   3.958   3.958   3.958   3.958   3.958
   150.00    3.958   3.958   3.958   3.958   3.958   3.958   3.958   3.958   3.958   3.958   3.958   3.958   3.958   3.958   3.958
   129.32    3.958   3.958   3.958   3.958   3.958   3.958   3.958   3.958   3.958   3.958   3.958   3.958   3.958   3.958   3.958
   108.64    3.958   3.958   3.958   3.958   3.958   3.958   3.958   3.958   3.958   3.958   3.958   3.958   3.958   3.958   3.958
    87.96    3.958   3.958   3.958   3.958   3.958   3.958   3.958   3.958   3.958   3.958   3.958   3.958   3.958   3.958   3.958
    67.29    3.958   3.958   3.958   3.958   3.958   3.958   3.958   3.958   3.958   3.958   3.958   3.958   3.958   3.958   3.958
    46.61    3.958   3.958   3.958   3.958   3.958   3.958   3.958   3.958   3.958   3.958   3.958   3.958   3.958   3.958   3.958
    25.93    3.958   3.958   3.958   3.958   3.958   3.958   3.958   3.958   3.958   3.958   3.958   3.958   3.958   3.958   3.958
     5.25    3.958   3.958   3.958   3.958   3.958   3.958   3.958   3.958   3.958   3.958   3.958   3.958   3.958   3.958   3.958

   Mean standard deviation across all grid points:
      u component:    7.876 m/s
      v component:    6.662 m/s
      w component:    3.958 m/s


U-component (X) statistics from the interpolated hub point:

   Mean =  81.0000 m/s
   TI   =   9.3688 %


Processing complete.  8.5378 CPU seconds used.
