
This summary file was generated by TurbSim (from OpenFAST-v3.5.1-607-g88e18ed3) on 14-Dec-2024 at 20:01:29.


Runtime Options:

    204560  Random seed #1
    RANLUX  Type of random number generator
         F  Output binary HH turbulence parameters?
         F  Output formatted turbulence parameters?
         F  Output AeroDyn HH files?
         T  Output AeroDyn FF files?
         F  Output BLADED FF files?
         F  Output tower data?
         F  Output HAWC FF files?
         F  Output formatted FF files?
         T  Output coherent turbulence time step file?
 0 -  NONE  IEC turbulence models scaled to exact specified standard deviation


Turbine/Model Specifications:

        15  Vertical grid-point matrix dimension
        15  Horizontal grid-point matrix dimension
     0.100  Time step [seconds]
    60.000  Analysis time [seconds]
    60.000  Usable output time [seconds]
   150.000  Hub height [m]
   289.500  Grid height [m]
   350.000  Grid width [m]
     0.000  Vertical flow angle [degrees]
     0.000  Horizontal flow angle [degrees]


Meteorological Boundary Conditions:

    IECKAI  IEC Kaimal spectral model
         3  IEC standard: IEC 61400-3 Ed. 1: 2006
    11.000  Percent turbulence intensity, IEC 61400-3 Ed. 1: 2006
       NTM  IEC Normal Turbulence Model
       N/A  IEC Extreme Turbulence Model (ETM) "c" parameter [m/s]
       PL   Wind profile type
   150.000  Reference height [m]
    41.000  Reference wind speed [m/s]
       N/A  Jet height [m]
     0.120  Power law exponent
     0.030  Surface roughness length [m]


Non-IEC Meteorological Boundary Conditions:

       N/A  Site latitude [degrees]
       N/A  Gradient Richardson number
       N/A  Friction or shear velocity [m/s]
       N/A  Mixing layer depth [m]
       N/A  Mean hub u'w' Reynolds stress
       N/A  Mean hub u'v' Reynolds stress
       N/A  Mean hub v'w' Reynolds stress


Spatial Coherence Models:

       IEC  u-component coherence model
      NONE  v-component coherence model
      NONE  w-component coherence model
(   12.000, 0.353E-03)  u-component coherence parameters
                   N/A  v-component coherence parameters
                   N/A  w-component coherence parameters
       N/A  Coherence exponent


You have requested that the following file(s) be generated:

   Turbsim_Vhub_41_seednum_204560.Turbsim.bts (AeroDyn/TurbSim full-field wind file)


Turbulence Simulation Scaling Parameter Summary:

   Turbulence model used                            =  IEC Kaimal
   Turbulence characteristic                        =  User-specified
   IEC standard                                     =  IEC 61400-3 Ed. 1: 2006
   Mean wind speed at hub height                    =   41.000 m/s
   Characteristic value of standard deviation       =    4.510 m/s
   Turbulence scale                                 =   42.000 m
   u-component integral scale                       =  340.200 m
   Coherency scale                                  =  340.200 m
   Characteristic value of hub turbulence intensity =   11.000%
   Gradient Richardson number                       =    0.000

   Wind profile type                                =  Power law
   Power law exponent                               =    0.120
   Mean shear across rotor disk                     =    0.059 (m/s)/m
   Assumed rotor diameter                           =  289.500 m
   Surface roughness length                         =    0.030 m

   Nyquist frequency of turbulent wind field        =    5.000 Hz

   Number of time steps in the FFT                  =      600
   Number of time steps output                      =      600
   Number of points simulated                       =      225


Mean Flow Angles:

   Vertical   =   0.0 degrees
   Horizontal =   0.0 degrees

Mean Wind Speed Profile:

   Height    Wind Speed   Horizontal Angle  Vertical Angle  U-comp (X)   V-comp (Y)   W-comp (Z)
     (m)        (m/s)         (degrees)       (degrees)       (m/s)        (m/s)        (m/s)   
   ------    ----------   ----------------  --------------  ----------   ----------   ----------
    294.8       44.46            0.00            0.00         44.46         0.00         0.00
    274.1       44.08            0.00            0.00         44.08         0.00         0.00
    253.4       43.66            0.00            0.00         43.66         0.00         0.00
    232.7       43.22            0.00            0.00         43.22         0.00         0.00
    212.0       42.74            0.00            0.00         42.74         0.00         0.00
    191.4       42.22            0.00            0.00         42.22         0.00         0.00
    170.7       41.64            0.00            0.00         41.64         0.00         0.00
    150.0       41.00            0.00            0.00         41.00         0.00         0.00
    129.3       40.28            0.00            0.00         40.28         0.00         0.00
    108.6       39.44            0.00            0.00         39.44         0.00         0.00
     88.0       38.46            0.00            0.00         38.46         0.00         0.00
     67.3       37.24            0.00            0.00         37.24         0.00         0.00
     46.6       35.63            0.00            0.00         35.63         0.00         0.00
     25.9       33.21            0.00            0.00         33.21         0.00         0.00
      5.2       27.42            0.00            0.00         27.42         0.00         0.00


Harvested Random Seeds after Generation of the Random Numbers:

      1881463 K 1
            0 K 2


Hub-Height Simulated Turbulence Statistical Summary:

   Type of Wind        Min (m/s)   Mean (m/s)    Max (m/s)  Sigma (m/s)       TI (%)
   ----------------    ---------   ----------    ---------  -----------       ------
   Longitudinal (u)        30.29        41.00        52.45        4.798       11.703
   Lateral (v)             -7.84        -0.00        10.05        3.351        8.173
   Vertical (w)            -6.55        -0.00         6.90        2.076        5.063
   U component             30.29        41.00        52.45        4.798       11.703
   V component             -7.84        -0.00        10.05        3.351        8.173
   W component             -6.55        -0.00         6.90        2.076        5.063
   Horizontal (U&V)        30.53        41.14        52.66        4.783       11.627
   Total                   30.55        41.19        52.66        4.768       11.574

                       Min Reynolds     Mean Reynolds    Max Reynolds    Correlation
   Product             Stress (m/s)^2   Stress (m/s)^2   Stress (m/s)^2  Coefficient
   ----------------    --------------   --------------   --------------  -----------
   u'w'                    -52.779            -1.734            46.588        -0.174
   u'v'                    -40.232             5.605            81.379         0.349
   v'w'                    -34.115             0.779            28.350         0.112


   Friction Velocity (Ustar)  =      1.317 m/s
   Maximum Instantaneous TKE  =     88.834 (m/s)^2
   Maximum Instantaneous CTKE =     40.755 (m/s)^2


Grid Point Variance Summary:

   Y-coord -175.00 -150.00 -125.00 -100.00  -75.00  -50.00  -25.00    0.00   25.00   50.00   75.00  100.00  125.00  150.00  175.00

   Height   Standard deviation at grid points for the u component:
   294.75    3.585   3.760   3.211   3.955   3.770   4.089   3.605   4.273   4.583   4.731   4.144   3.837   4.060   4.520   3.846
   274.07    3.468   3.711   3.669   3.686   4.005   3.330   3.716   3.939   4.441   4.512   4.200   3.546   3.625   4.364   4.404
   253.39    4.129   3.907   4.197   3.771   3.823   3.524   3.253   3.764   3.816   3.347   4.059   4.206   4.537   4.123   4.365
   232.71    4.020   3.224   3.377   3.676   3.575   3.867   3.527   3.173   3.558   3.614   3.275   4.081   3.884   4.452   4.325
   212.04    3.790   3.400   3.475   3.548   3.867   3.394   4.155   3.705   3.051   3.313   3.785   4.072   4.337   4.103   4.803
   191.36    3.625   3.425   3.449   3.573   3.874   3.949   4.134   3.527   3.536   3.511   3.173   2.910   3.822   4.017   4.481
   170.68    3.836   3.875   3.474   3.644   3.571   3.907   3.711   4.158   3.528   3.297   3.436   3.395   4.603   4.284   5.050
   150.00    3.487   4.030   3.777   3.807   3.599   3.794   3.714   4.798   4.634   4.578   4.062   3.944   3.898   4.646   4.364
   129.32    3.578   4.211   3.538   3.513   3.476   3.200   4.138   4.323   4.579   5.060   4.191   5.125   3.255   3.815   3.751
   108.64    3.573   3.509   3.575   3.498   3.413   3.566   3.997   3.948   3.887   4.264   3.657   4.340   4.071   3.531   3.736
    87.96    4.012   4.285   3.863   3.856   3.887   3.527   3.925   3.723   4.063   4.361   4.349   3.599   3.521   3.342   3.654
    67.29    4.071   4.458   3.846   4.185   3.993   3.785   3.469   3.458   3.698   4.491   4.468   4.380   3.838   3.595   3.390
    46.61    4.440   4.497   4.185   4.011   4.150   4.026   3.406   4.043   3.854   4.588   4.570   4.567   4.445   3.449   2.965
    25.93    3.904   3.974   3.380   3.742   3.875   3.399   3.695   3.584   3.835   4.098   3.989   4.425   4.357   3.593   3.154
     5.25    3.923   4.571   4.067   3.812   3.372   3.964   4.118   3.015   3.284   3.631   4.105   3.785   3.887   3.011   3.105

   Height   Standard deviation at grid points for the v component:
   294.75    3.351   3.351   3.351   3.351   3.351   3.351   3.351   3.351   3.351   3.351   3.351   3.351   3.351   3.351   3.351
   274.07    3.351   3.351   3.351   3.351   3.351   3.351   3.351   3.351   3.351   3.351   3.351   3.351   3.351   3.351   3.351
   253.39    3.351   3.351   3.351   3.351   3.351   3.351   3.351   3.351   3.351   3.351   3.351   3.351   3.351   3.351   3.351
   232.71    3.351   3.351   3.351   3.351   3.351   3.351   3.351   3.351   3.351   3.351   3.351   3.351   3.351   3.351   3.351
   212.04    3.351   3.351   3.351   3.351   3.351   3.351   3.351   3.351   3.351   3.351   3.351   3.351   3.351   3.351   3.351
   191.36    3.351   3.351   3.351   3.351   3.351   3.351   3.351   3.351   3.351   3.351   3.351   3.351   3.351   3.351   3.351
   170.68    3.351   3.351   3.351   3.351   3.351   3.351   3.351   3.351   3.351   3.351   3.351   3.351   3.351   3.351   3.351
   150.00    3.351   3.351   3.351   3.351   3.351   3.351   3.351   3.351   3.351   3.351   3.351   3.351   3.351   3.351   3.351
   129.32    3.351   3.351   3.351   3.351   3.351   3.351   3.351   3.351   3.351   3.351   3.351   3.351   3.351   3.351   3.351
   108.64    3.351   3.351   3.351   3.351   3.351   3.351   3.351   3.351   3.351   3.351   3.351   3.351   3.351   3.351   3.351
    87.96    3.351   3.351   3.351   3.351   3.351   3.351   3.351   3.351   3.351   3.351   3.351   3.351   3.351   3.351   3.351
    67.29    3.351   3.351   3.351   3.351   3.351   3.351   3.351   3.351   3.351   3.351   3.351   3.351   3.351   3.351   3.351
    46.61    3.351   3.351   3.351   3.351   3.351   3.351   3.351   3.351   3.351   3.351   3.351   3.351   3.351   3.351   3.351
    25.93    3.351   3.351   3.351   3.351   3.351   3.351   3.351   3.351   3.351   3.351   3.351   3.351   3.351   3.351   3.351
     5.25    3.351   3.351   3.351   3.351   3.351   3.351   3.351   3.351   3.351   3.351   3.351   3.351   3.351   3.351   3.351

   Height   Standard deviation at grid points for the w component:
   294.75    2.076   2.076   2.076   2.076   2.076   2.076   2.076   2.076   2.076   2.076   2.076   2.076   2.076   2.076   2.076
   274.07    2.076   2.076   2.076   2.076   2.076   2.076   2.076   2.076   2.076   2.076   2.076   2.076   2.076   2.076   2.076
   253.39    2.076   2.076   2.076   2.076   2.076   2.076   2.076   2.076   2.076   2.076   2.076   2.076   2.076   2.076   2.076
   232.71    2.076   2.076   2.076   2.076   2.076   2.076   2.076   2.076   2.076   2.076   2.076   2.076   2.076   2.076   2.076
   212.04    2.076   2.076   2.076   2.076   2.076   2.076   2.076   2.076   2.076   2.076   2.076   2.076   2.076   2.076   2.076
   191.36    2.076   2.076   2.076   2.076   2.076   2.076   2.076   2.076   2.076   2.076   2.076   2.076   2.076   2.076   2.076
   170.68    2.076   2.076   2.076   2.076   2.076   2.076   2.076   2.076   2.076   2.076   2.076   2.076   2.076   2.076   2.076
   150.00    2.076   2.076   2.076   2.076   2.076   2.076   2.076   2.076   2.076   2.076   2.076   2.076   2.076   2.076   2.076
   129.32    2.076   2.076   2.076   2.076   2.076   2.076   2.076   2.076   2.076   2.076   2.076   2.076   2.076   2.076   2.076
   108.64    2.076   2.076   2.076   2.076   2.076   2.076   2.076   2.076   2.076   2.076   2.076   2.076   2.076   2.076   2.076
    87.96    2.076   2.076   2.076   2.076   2.076   2.076   2.076   2.076   2.076   2.076   2.076   2.076   2.076   2.076   2.076
    67.29    2.076   2.076   2.076   2.076   2.076   2.076   2.076   2.076   2.076   2.076   2.076   2.076   2.076   2.076   2.076
    46.61    2.076   2.076   2.076   2.076   2.076   2.076   2.076   2.076   2.076   2.076   2.076   2.076   2.076   2.076   2.076
    25.93    2.076   2.076   2.076   2.076   2.076   2.076   2.076   2.076   2.076   2.076   2.076   2.076   2.076   2.076   2.076
     5.25    2.076   2.076   2.076   2.076   2.076   2.076   2.076   2.076   2.076   2.076   2.076   2.076   2.076   2.076   2.076

   Mean standard deviation across all grid points:
      u component:    3.871 m/s
      v component:    3.351 m/s
      w component:    2.076 m/s


U-component (X) statistics from the interpolated hub point:

   Mean =  41.0000 m/s
   TI   =  11.7030 %


Processing complete.  23.545 CPU seconds used.
