
This summary file was generated by TurbSim (from OpenFAST-v3.5.1-607-g88e18ed3) on 14-Dec-2024 at 20:00:30.


Runtime Options:

    929617  Random seed #1
    RANLUX  Type of random number generator
         F  Output binary HH turbulence parameters?
         F  Output formatted turbulence parameters?
         F  Output AeroDyn HH files?
         T  Output AeroDyn FF files?
         F  Output BLADED FF files?
         F  Output tower data?
         F  Output HAWC FF files?
         F  Output formatted FF files?
         T  Output coherent turbulence time step file?
 0 -  NONE  IEC turbulence models scaled to exact specified standard deviation


Turbine/Model Specifications:

        15  Vertical grid-point matrix dimension
        15  Horizontal grid-point matrix dimension
     0.100  Time step [seconds]
    60.000  Analysis time [seconds]
    60.000  Usable output time [seconds]
   150.000  Hub height [m]
   289.500  Grid height [m]
   350.000  Grid width [m]
     0.000  Vertical flow angle [degrees]
     0.000  Horizontal flow angle [degrees]


Meteorological Boundary Conditions:

    IECKAI  IEC Kaimal spectral model
         3  IEC standard: IEC 61400-3 Ed. 1: 2006
    11.000  Percent turbulence intensity, IEC 61400-3 Ed. 1: 2006
       NTM  IEC Normal Turbulence Model
       N/A  IEC Extreme Turbulence Model (ETM) "c" parameter [m/s]
       PL   Wind profile type
   150.000  Reference height [m]
    17.000  Reference wind speed [m/s]
       N/A  Jet height [m]
     0.120  Power law exponent
     0.030  Surface roughness length [m]


Non-IEC Meteorological Boundary Conditions:

       N/A  Site latitude [degrees]
       N/A  Gradient Richardson number
       N/A  Friction or shear velocity [m/s]
       N/A  Mixing layer depth [m]
       N/A  Mean hub u'w' Reynolds stress
       N/A  Mean hub u'v' Reynolds stress
       N/A  Mean hub v'w' Reynolds stress


Spatial Coherence Models:

       IEC  u-component coherence model
      NONE  v-component coherence model
      NONE  w-component coherence model
(   12.000, 0.353E-03)  u-component coherence parameters
                   N/A  v-component coherence parameters
                   N/A  w-component coherence parameters
       N/A  Coherence exponent


You have requested that the following file(s) be generated:

   Turbsim_Vhub_17_seednum_929617.Turbsim.bts (AeroDyn/TurbSim full-field wind file)


Turbulence Simulation Scaling Parameter Summary:

   Turbulence model used                            =  IEC Kaimal
   Turbulence characteristic                        =  User-specified
   IEC standard                                     =  IEC 61400-3 Ed. 1: 2006
   Mean wind speed at hub height                    =   17.000 m/s
   Characteristic value of standard deviation       =    1.870 m/s
   Turbulence scale                                 =   42.000 m
   u-component integral scale                       =  340.200 m
   Coherency scale                                  =  340.200 m
   Characteristic value of hub turbulence intensity =   11.000%
   Gradient Richardson number                       =    0.000

   Wind profile type                                =  Power law
   Power law exponent                               =    0.120
   Mean shear across rotor disk                     =    0.024 (m/s)/m
   Assumed rotor diameter                           =  289.500 m
   Surface roughness length                         =    0.030 m

   Nyquist frequency of turbulent wind field        =    5.000 Hz

   Number of time steps in the FFT                  =      600
   Number of time steps output                      =      600
   Number of points simulated                       =      225


Mean Flow Angles:

   Vertical   =   0.0 degrees
   Horizontal =   0.0 degrees

Mean Wind Speed Profile:

   Height    Wind Speed   Horizontal Angle  Vertical Angle  U-comp (X)   V-comp (Y)   W-comp (Z)
     (m)        (m/s)         (degrees)       (degrees)       (m/s)        (m/s)        (m/s)   
   ------    ----------   ----------------  --------------  ----------   ----------   ----------
    294.8       18.44            0.00            0.00         18.44         0.00         0.00
    274.1       18.28            0.00            0.00         18.28         0.00         0.00
    253.4       18.10            0.00            0.00         18.10         0.00         0.00
    232.7       17.92            0.00            0.00         17.92         0.00         0.00
    212.0       17.72            0.00            0.00         17.72         0.00         0.00
    191.4       17.50            0.00            0.00         17.50         0.00         0.00
    170.7       17.27            0.00            0.00         17.27         0.00         0.00
    150.0       17.00            0.00            0.00         17.00         0.00         0.00
    129.3       16.70            0.00            0.00         16.70         0.00         0.00
    108.6       16.35            0.00            0.00         16.35         0.00         0.00
     88.0       15.95            0.00            0.00         15.95         0.00         0.00
     67.3       15.44            0.00            0.00         15.44         0.00         0.00
     46.6       14.78            0.00            0.00         14.78         0.00         0.00
     25.9       13.77            0.00            0.00         13.77         0.00         0.00
      5.2       11.37            0.00            0.00         11.37         0.00         0.00


Harvested Random Seeds after Generation of the Random Numbers:

      1881463 K 1
            0 K 2


Hub-Height Simulated Turbulence Statistical Summary:

   Type of Wind        Min (m/s)   Mean (m/s)    Max (m/s)  Sigma (m/s)       TI (%)
   ----------------    ---------   ----------    ---------  -----------       ------
   Longitudinal (u)        13.19        17.00        21.02        1.652        9.717
   Lateral (v)             -3.89         0.00         2.95        1.327        7.808
   Vertical (w)            -2.46         0.00         2.40        0.874        5.143
   U component             13.19        17.00        21.02        1.652        9.717
   V component             -3.89         0.00         2.95        1.327        7.808
   W component             -2.46         0.00         2.40        0.874        5.143
   Horizontal (U&V)        13.21        17.05        21.05        1.630        9.557
   Total                   13.23        17.08        21.07        1.627        9.530

                       Min Reynolds     Mean Reynolds    Max Reynolds    Correlation
   Product             Stress (m/s)^2   Stress (m/s)^2   Stress (m/s)^2  Coefficient
   ----------------    --------------   --------------   --------------  -----------
   u'w'                     -5.447            -0.073             4.375        -0.050
   u'v'                     -5.202             0.811             8.925         0.370
   v'w'                     -6.074            -0.225             3.908        -0.194


   Friction Velocity (Ustar)  =      0.270 m/s
   Maximum Instantaneous TKE  =      9.866 (m/s)^2
   Maximum Instantaneous CTKE =      5.284 (m/s)^2


Grid Point Variance Summary:

   Y-coord -175.00 -150.00 -125.00 -100.00  -75.00  -50.00  -25.00    0.00   25.00   50.00   75.00  100.00  125.00  150.00  175.00

   Height   Standard deviation at grid points for the u component:
   294.75    1.357   1.506   1.242   1.112   1.384   1.340   1.240   1.376   1.261   1.156   1.448   1.200   1.202   1.284   1.072
   274.07    1.084   1.075   1.072   1.222   1.435   1.270   1.330   1.464   1.556   1.148   1.233   1.103   1.146   1.158   1.148
   253.39    1.247   1.136   1.654   1.357   1.173   1.307   1.372   1.744   1.545   1.612   1.258   1.266   1.283   0.980   1.195
   232.71    1.249   1.417   1.417   1.574   1.265   1.470   1.309   1.753   2.024   1.339   1.188   1.245   1.103   1.321   1.211
   212.04    1.276   1.278   1.158   1.284   1.468   1.698   1.569   1.718   1.642   1.644   1.098   1.384   1.296   1.205   1.181
   191.36    1.116   1.265   1.193   1.079   1.284   1.449   1.486   1.436   1.198   1.467   1.243   1.348   1.223   1.112   1.021
   170.68    1.447   1.139   1.359   1.376   1.201   1.459   1.276   1.450   1.167   1.266   1.180   1.405   1.268   1.427   1.461
   150.00    1.332   1.557   1.373   1.355   1.492   1.540   1.589   1.652   1.574   1.714   1.352   1.233   1.377   1.405   1.409
   129.32    1.237   1.535   1.091   1.324   1.282   1.025   1.178   1.189   1.588   1.329   1.346   1.430   1.231   1.153   1.509
   108.64    1.354   1.402   1.430   1.322   1.557   1.222   1.580   1.318   1.407   1.572   1.690   1.842   1.723   1.047   1.157
    87.96    1.969   1.486   1.403   1.088   1.405   1.437   1.197   1.644   2.047   1.904   1.378   1.713   1.367   1.427   1.082
    67.29    1.950   1.596   1.251   1.034   1.383   1.327   1.366   1.610   1.878   1.518   1.278   1.092   1.264   1.142   1.130
    46.61    1.871   1.683   1.514   1.195   1.457   1.330   1.304   1.300   1.744   1.749   1.174   1.094   1.206   1.211   1.535
    25.93    1.523   1.640   1.290   0.962   1.231   1.277   1.257   1.133   1.621   1.905   1.101   0.935   1.278   1.338   1.483
     5.25    1.439   1.446   0.991   1.182   1.480   1.514   1.182   1.201   1.524   1.656   1.311   1.244   1.385   1.437   1.496

   Height   Standard deviation at grid points for the v component:
   294.75    1.327   1.327   1.327   1.327   1.327   1.327   1.327   1.327   1.327   1.327   1.327   1.327   1.327   1.327   1.327
   274.07    1.327   1.327   1.327   1.327   1.327   1.327   1.327   1.327   1.327   1.327   1.327   1.327   1.327   1.327   1.327
   253.39    1.327   1.327   1.327   1.327   1.327   1.327   1.327   1.327   1.327   1.327   1.327   1.327   1.327   1.327   1.327
   232.71    1.327   1.327   1.327   1.327   1.327   1.327   1.327   1.327   1.327   1.327   1.327   1.327   1.327   1.327   1.327
   212.04    1.327   1.327   1.327   1.327   1.327   1.327   1.327   1.327   1.327   1.327   1.327   1.327   1.327   1.327   1.327
   191.36    1.327   1.327   1.327   1.327   1.327   1.327   1.327   1.327   1.327   1.327   1.327   1.327   1.327   1.327   1.327
   170.68    1.327   1.327   1.327   1.327   1.327   1.327   1.327   1.327   1.327   1.327   1.327   1.327   1.327   1.327   1.327
   150.00    1.327   1.327   1.327   1.327   1.327   1.327   1.327   1.327   1.327   1.327   1.327   1.327   1.327   1.327   1.327
   129.32    1.327   1.327   1.327   1.327   1.327   1.327   1.327   1.327   1.327   1.327   1.327   1.327   1.327   1.327   1.327
   108.64    1.327   1.327   1.327   1.327   1.327   1.327   1.327   1.327   1.327   1.327   1.327   1.327   1.327   1.327   1.327
    87.96    1.327   1.327   1.327   1.327   1.327   1.327   1.327   1.327   1.327   1.327   1.327   1.327   1.327   1.327   1.327
    67.29    1.327   1.327   1.327   1.327   1.327   1.327   1.327   1.327   1.327   1.327   1.327   1.327   1.327   1.327   1.327
    46.61    1.327   1.327   1.327   1.327   1.327   1.327   1.327   1.327   1.327   1.327   1.327   1.327   1.327   1.327   1.327
    25.93    1.327   1.327   1.327   1.327   1.327   1.327   1.327   1.327   1.327   1.327   1.327   1.327   1.327   1.327   1.327
     5.25    1.327   1.327   1.327   1.327   1.327   1.327   1.327   1.327   1.327   1.327   1.327   1.327   1.327   1.327   1.327

   Height   Standard deviation at grid points for the w component:
   294.75    0.874   0.874   0.874   0.874   0.874   0.874   0.874   0.874   0.874   0.874   0.874   0.874   0.874   0.874   0.874
   274.07    0.874   0.874   0.874   0.874   0.874   0.874   0.874   0.874   0.874   0.874   0.874   0.874   0.874   0.874   0.874
   253.39    0.874   0.874   0.874   0.874   0.874   0.874   0.874   0.874   0.874   0.874   0.874   0.874   0.874   0.874   0.874
   232.71    0.874   0.874   0.874   0.874   0.874   0.874   0.874   0.874   0.874   0.874   0.874   0.874   0.874   0.874   0.874
   212.04    0.874   0.874   0.874   0.874   0.874   0.874   0.874   0.874   0.874   0.874   0.874   0.874   0.874   0.874   0.874
   191.36    0.874   0.874   0.874   0.874   0.874   0.874   0.874   0.874   0.874   0.874   0.874   0.874   0.874   0.874   0.874
   170.68    0.874   0.874   0.874   0.874   0.874   0.874   0.874   0.874   0.874   0.874   0.874   0.874   0.874   0.874   0.874
   150.00    0.874   0.874   0.874   0.874   0.874   0.874   0.874   0.874   0.874   0.874   0.874   0.874   0.874   0.874   0.874
   129.32    0.874   0.874   0.874   0.874   0.874   0.874   0.874   0.874   0.874   0.874   0.874   0.874   0.874   0.874   0.874
   108.64    0.874   0.874   0.874   0.874   0.874   0.874   0.874   0.874   0.874   0.874   0.874   0.874   0.874   0.874   0.874
    87.96    0.874   0.874   0.874   0.874   0.874   0.874   0.874   0.874   0.874   0.874   0.874   0.874   0.874   0.874   0.874
    67.29    0.874   0.874   0.874   0.874   0.874   0.874   0.874   0.874   0.874   0.874   0.874   0.874   0.874   0.874   0.874
    46.61    0.874   0.874   0.874   0.874   0.874   0.874   0.874   0.874   0.874   0.874   0.874   0.874   0.874   0.874   0.874
    25.93    0.874   0.874   0.874   0.874   0.874   0.874   0.874   0.874   0.874   0.874   0.874   0.874   0.874   0.874   0.874
     5.25    0.874   0.874   0.874   0.874   0.874   0.874   0.874   0.874   0.874   0.874   0.874   0.874   0.874   0.874   0.874

   Mean standard deviation across all grid points:
      u component:    1.363 m/s
      v component:    1.327 m/s
      w component:    0.874 m/s


U-component (X) statistics from the interpolated hub point:

   Mean =  17.0000 m/s
   TI   =   9.7173 %


Processing complete.  4.8517 CPU seconds used.
