
This summary file was generated by TurbSim (from OpenFAST-v3.5.1-607-g88e18ed3) on 13-Dec-2024 at 13:49:44.


Runtime Options:

    929617  Random seed #1
    RANLUX  Type of random number generator
         F  Output binary HH turbulence parameters?
         F  Output formatted turbulence parameters?
         F  Output AeroDyn HH files?
         T  Output AeroDyn FF files?
         F  Output BLADED FF files?
         F  Output tower data?
         F  Output HAWC FF files?
         F  Output formatted FF files?
         T  Output coherent turbulence time step file?
 0 -  NONE  IEC turbulence models scaled to exact specified standard deviation


Turbine/Model Specifications:

        15  Vertical grid-point matrix dimension
        15  Horizontal grid-point matrix dimension
     0.100  Time step [seconds]
   800.000  Analysis time [seconds]
   800.000  Usable output time [seconds]
   150.000  Hub height [m]
   289.500  Grid height [m]
   350.000  Grid width [m]
     0.000  Vertical flow angle [degrees]
     0.000  Horizontal flow angle [degrees]


Meteorological Boundary Conditions:

    IECKAI  IEC Kaimal spectral model
         3  IEC standard: IEC 61400-3 Ed. 1: 2006
    11.000  Percent turbulence intensity, IEC 61400-3 Ed. 1: 2006
       NTM  IEC Normal Turbulence Model
       N/A  IEC Extreme Turbulence Model (ETM) "c" parameter [m/s]
       PL   Wind profile type
   150.000  Reference height [m]
    49.000  Reference wind speed [m/s]
       N/A  Jet height [m]
     0.120  Power law exponent
     0.030  Surface roughness length [m]


Non-IEC Meteorological Boundary Conditions:

       N/A  Site latitude [degrees]
       N/A  Gradient Richardson number
       N/A  Friction or shear velocity [m/s]
       N/A  Mixing layer depth [m]
       N/A  Mean hub u'w' Reynolds stress
       N/A  Mean hub u'v' Reynolds stress
       N/A  Mean hub v'w' Reynolds stress


Spatial Coherence Models:

       IEC  u-component coherence model
      NONE  v-component coherence model
      NONE  w-component coherence model
(   12.000, 0.353E-03)  u-component coherence parameters
                   N/A  v-component coherence parameters
                   N/A  w-component coherence parameters
       N/A  Coherence exponent


You have requested that the following file(s) be generated:

   Turbsim_Vhub_49_seednum_929617.Turbsim.bts (AeroDyn/TurbSim full-field wind file)


Turbulence Simulation Scaling Parameter Summary:

   Turbulence model used                            =  IEC Kaimal
   Turbulence characteristic                        =  User-specified
   IEC standard                                     =  IEC 61400-3 Ed. 1: 2006
   Mean wind speed at hub height                    =   49.000 m/s
   Characteristic value of standard deviation       =    5.390 m/s
   Turbulence scale                                 =   42.000 m
   u-component integral scale                       =  340.200 m
   Coherency scale                                  =  340.200 m
   Characteristic value of hub turbulence intensity =   11.000%
   Gradient Richardson number                       =    0.000

   Wind profile type                                =  Power law
   Power law exponent                               =    0.120
   Mean shear across rotor disk                     =    0.070 (m/s)/m
   Assumed rotor diameter                           =  289.500 m
   Surface roughness length                         =    0.030 m

   Nyquist frequency of turbulent wind field        =    5.000 Hz

   Number of time steps in the FFT                  =     8000
   Number of time steps output                      =     8000
   Number of points simulated                       =      225


Mean Flow Angles:

   Vertical   =   0.0 degrees
   Horizontal =   0.0 degrees

Mean Wind Speed Profile:

   Height    Wind Speed   Horizontal Angle  Vertical Angle  U-comp (X)   V-comp (Y)   W-comp (Z)
     (m)        (m/s)         (degrees)       (degrees)       (m/s)        (m/s)        (m/s)   
   ------    ----------   ----------------  --------------  ----------   ----------   ----------
    294.8       53.14            0.00            0.00         53.14         0.00         0.00
    274.1       52.68            0.00            0.00         52.68         0.00         0.00
    253.4       52.18            0.00            0.00         52.18         0.00         0.00
    232.7       51.65            0.00            0.00         51.65         0.00         0.00
    212.0       51.08            0.00            0.00         51.08         0.00         0.00
    191.4       50.45            0.00            0.00         50.45         0.00         0.00
    170.7       49.77            0.00            0.00         49.77         0.00         0.00
    150.0       49.00            0.00            0.00         49.00         0.00         0.00
    129.3       48.14            0.00            0.00         48.14         0.00         0.00
    108.6       47.14            0.00            0.00         47.14         0.00         0.00
     88.0       45.96            0.00            0.00         45.96         0.00         0.00
     67.3       44.51            0.00            0.00         44.51         0.00         0.00
     46.6       42.59            0.00            0.00         42.59         0.00         0.00
     25.9       39.69            0.00            0.00         39.69         0.00         0.00
      5.2       32.77            0.00            0.00         32.77         0.00         0.00


Harvested Random Seeds after Generation of the Random Numbers:

     25087500 K 1
            0 K 2


Hub-Height Simulated Turbulence Statistical Summary:

   Type of Wind        Min (m/s)   Mean (m/s)    Max (m/s)  Sigma (m/s)       TI (%)
   ----------------    ---------   ----------    ---------  -----------       ------
   Longitudinal (u)        30.92        49.00        69.39        5.518       11.261
   Lateral (v)            -13.55         0.00        14.85        4.171        8.512
   Vertical (w)            -9.17         0.00         9.51        2.489        5.079
   U component             30.92        49.00        69.39        5.518       11.261
   V component            -13.55         0.00        14.85        4.171        8.512
   W component             -9.17         0.00         9.51        2.489        5.079
   Horizontal (U&V)        31.67        49.18        69.41        5.504       11.193
   Total                   31.77        49.24        69.41        5.497       11.162

                       Min Reynolds     Mean Reynolds    Max Reynolds    Correlation
   Product             Stress (m/s)^2   Stress (m/s)^2   Stress (m/s)^2  Coefficient
   ----------------    --------------   --------------   --------------  -----------
   u'w'                    -96.572             0.200           125.082         0.015
   u'v'                   -188.808            -1.184           134.198        -0.051
   v'w'                    -64.106             0.295            93.233         0.028


   Friction Velocity (Ustar)  =      0.448 m/s
   Maximum Instantaneous TKE  =    216.718 (m/s)^2
   Maximum Instantaneous CTKE =     94.452 (m/s)^2


Grid Point Variance Summary:

   Y-coord -175.00 -150.00 -125.00 -100.00  -75.00  -50.00  -25.00    0.00   25.00   50.00   75.00  100.00  125.00  150.00  175.00

   Height   Standard deviation at grid points for the u component:
   294.75    5.580   5.797   5.647   5.548   5.475   5.616   5.648   5.726   5.518   5.649   5.304   5.260   5.423   5.527   5.524
   274.07    5.816   5.677   5.471   5.308   5.383   5.618   5.491   5.552   5.626   5.599   5.421   5.416   5.388   5.412   5.368
   253.39    5.639   5.378   5.359   5.268   5.434   5.500   5.552   5.685   5.492   5.307   5.350   5.135   4.988   5.261   5.304
   232.71    5.525   5.458   5.416   5.597   5.641   5.266   5.432   5.403   5.117   5.066   5.156   5.041   4.988   5.115   5.030
   212.04    5.759   5.341   5.418   5.468   5.370   5.323   5.450   5.332   5.257   4.879   5.242   5.124   4.915   5.069   5.026
   191.36    5.438   5.223   5.301   5.458   5.312   5.374   5.087   5.136   5.100   4.969   5.072   5.327   5.247   5.247   5.259
   170.68    5.421   5.319   5.373   5.453   5.381   5.387   5.261   5.243   5.349   5.166   5.492   5.226   5.464   5.576   5.642
   150.00    5.573   5.515   5.430   5.881   5.647   5.319   5.463   5.518   5.389   5.496   5.703   5.580   5.373   5.430   5.710
   129.32    5.354   5.296   5.652   5.931   5.743   5.609   5.295   5.395   5.544   5.359   5.387   5.221   5.290   5.465   5.351
   108.64    5.339   5.167   5.536   5.515   5.472   5.643   5.380   5.377   5.241   5.142   5.113   5.263   5.666   5.386   5.136
    87.96    5.201   5.078   5.191   5.367   5.221   5.421   5.470   5.246   5.184   5.098   5.104   5.035   5.421   5.263   5.277
    67.29    5.254   5.326   5.195   5.065   5.239   5.406   5.508   5.500   5.277   5.073   5.124   5.078   5.323   5.178   5.091
    46.61    5.169   5.123   5.194   5.210   5.214   5.474   5.277   5.244   5.130   4.957   4.994   5.044   5.350   5.121   4.897
    25.93    5.259   4.936   4.981   4.987   4.893   5.272   4.984   5.289   4.898   5.095   5.140   5.070   5.198   5.280   5.022
     5.25    5.266   4.898   5.061   5.071   5.031   5.272   5.121   5.210   5.247   5.093   4.999   5.019   5.003   5.191   5.004

   Height   Standard deviation at grid points for the v component:
   294.75    4.171   4.171   4.171   4.171   4.171   4.171   4.171   4.171   4.171   4.171   4.171   4.171   4.171   4.171   4.171
   274.07    4.171   4.171   4.171   4.171   4.171   4.171   4.171   4.171   4.171   4.171   4.171   4.171   4.171   4.171   4.171
   253.39    4.171   4.171   4.171   4.171   4.171   4.171   4.171   4.171   4.171   4.171   4.171   4.171   4.171   4.171   4.171
   232.71    4.171   4.171   4.171   4.171   4.171   4.171   4.171   4.171   4.171   4.171   4.171   4.171   4.171   4.171   4.171
   212.04    4.171   4.171   4.171   4.171   4.171   4.171   4.171   4.171   4.171   4.171   4.171   4.171   4.171   4.171   4.171
   191.36    4.171   4.171   4.171   4.171   4.171   4.171   4.171   4.171   4.171   4.171   4.171   4.171   4.171   4.171   4.171
   170.68    4.171   4.171   4.171   4.171   4.171   4.171   4.171   4.171   4.171   4.171   4.171   4.171   4.171   4.171   4.171
   150.00    4.171   4.171   4.171   4.171   4.171   4.171   4.171   4.171   4.171   4.171   4.171   4.171   4.171   4.171   4.171
   129.32    4.171   4.171   4.171   4.171   4.171   4.171   4.171   4.171   4.171   4.171   4.171   4.171   4.171   4.171   4.171
   108.64    4.171   4.171   4.171   4.171   4.171   4.171   4.171   4.171   4.171   4.171   4.171   4.171   4.171   4.171   4.171
    87.96    4.171   4.171   4.171   4.171   4.171   4.171   4.171   4.171   4.171   4.171   4.171   4.171   4.171   4.171   4.171
    67.29    4.171   4.171   4.171   4.171   4.171   4.171   4.171   4.171   4.171   4.171   4.171   4.171   4.171   4.171   4.171
    46.61    4.171   4.171   4.171   4.171   4.171   4.171   4.171   4.171   4.171   4.171   4.171   4.171   4.171   4.171   4.171
    25.93    4.171   4.171   4.171   4.171   4.171   4.171   4.171   4.171   4.171   4.171   4.171   4.171   4.171   4.171   4.171
     5.25    4.171   4.171   4.171   4.171   4.171   4.171   4.171   4.171   4.171   4.171   4.171   4.171   4.171   4.171   4.171

   Height   Standard deviation at grid points for the w component:
   294.75    2.489   2.489   2.489   2.489   2.489   2.489   2.489   2.489   2.489   2.489   2.489   2.489   2.489   2.489   2.489
   274.07    2.489   2.489   2.489   2.489   2.489   2.489   2.489   2.489   2.489   2.489   2.489   2.489   2.489   2.489   2.489
   253.39    2.489   2.489   2.489   2.489   2.489   2.489   2.489   2.489   2.489   2.489   2.489   2.489   2.489   2.489   2.489
   232.71    2.489   2.489   2.489   2.489   2.489   2.489   2.489   2.489   2.489   2.489   2.489   2.489   2.489   2.489   2.489
   212.04    2.489   2.489   2.489   2.489   2.489   2.489   2.489   2.489   2.489   2.489   2.489   2.489   2.489   2.489   2.489
   191.36    2.489   2.489   2.489   2.489   2.489   2.489   2.489   2.489   2.489   2.489   2.489   2.489   2.489   2.489   2.489
   170.68    2.489   2.489   2.489   2.489   2.489   2.489   2.489   2.489   2.489   2.489   2.489   2.489   2.489   2.489   2.489
   150.00    2.489   2.489   2.489   2.489   2.489   2.489   2.489   2.489   2.489   2.489   2.489   2.489   2.489   2.489   2.489
   129.32    2.489   2.489   2.489   2.489   2.489   2.489   2.489   2.489   2.489   2.489   2.489   2.489   2.489   2.489   2.489
   108.64    2.489   2.489   2.489   2.489   2.489   2.489   2.489   2.489   2.489   2.489   2.489   2.489   2.489   2.489   2.489
    87.96    2.489   2.489   2.489   2.489   2.489   2.489   2.489   2.489   2.489   2.489   2.489   2.489   2.489   2.489   2.489
    67.29    2.489   2.489   2.489   2.489   2.489   2.489   2.489   2.489   2.489   2.489   2.489   2.489   2.489   2.489   2.489
    46.61    2.489   2.489   2.489   2.489   2.489   2.489   2.489   2.489   2.489   2.489   2.489   2.489   2.489   2.489   2.489
    25.93    2.489   2.489   2.489   2.489   2.489   2.489   2.489   2.489   2.489   2.489   2.489   2.489   2.489   2.489   2.489
     5.25    2.489   2.489   2.489   2.489   2.489   2.489   2.489   2.489   2.489   2.489   2.489   2.489   2.489   2.489   2.489

   Mean standard deviation across all grid points:
      u component:    5.319 m/s
      v component:    4.171 m/s
      w component:    2.489 m/s


U-component (X) statistics from the interpolated hub point:

   Mean =  49.0000 m/s
   TI   =  11.2612 %


Processing complete.  450.54 CPU seconds used.
