
This summary file was generated by TurbSim (from OpenFAST-v3.5.1-607-g88e18ed3) on 14-Dec-2024 at 20:03:06.


Runtime Options:

    316375  Random seed #1
    RANLUX  Type of random number generator
         F  Output binary HH turbulence parameters?
         F  Output formatted turbulence parameters?
         F  Output AeroDyn HH files?
         T  Output AeroDyn FF files?
         F  Output BLADED FF files?
         F  Output tower data?
         F  Output HAWC FF files?
         F  Output formatted FF files?
         T  Output coherent turbulence time step file?
 0 -  NONE  IEC turbulence models scaled to exact specified standard deviation


Turbine/Model Specifications:

        15  Vertical grid-point matrix dimension
        15  Horizontal grid-point matrix dimension
     0.100  Time step [seconds]
    60.000  Analysis time [seconds]
    60.000  Usable output time [seconds]
   150.000  Hub height [m]
   289.500  Grid height [m]
   350.000  Grid width [m]
     0.000  Vertical flow angle [degrees]
     0.000  Horizontal flow angle [degrees]


Meteorological Boundary Conditions:

    IECKAI  IEC Kaimal spectral model
         3  IEC standard: IEC 61400-3 Ed. 1: 2006
    11.000  Percent turbulence intensity, IEC 61400-3 Ed. 1: 2006
       NTM  IEC Normal Turbulence Model
       N/A  IEC Extreme Turbulence Model (ETM) "c" parameter [m/s]
       PL   Wind profile type
   150.000  Reference height [m]
    81.000  Reference wind speed [m/s]
       N/A  Jet height [m]
     0.120  Power law exponent
     0.030  Surface roughness length [m]


Non-IEC Meteorological Boundary Conditions:

       N/A  Site latitude [degrees]
       N/A  Gradient Richardson number
       N/A  Friction or shear velocity [m/s]
       N/A  Mixing layer depth [m]
       N/A  Mean hub u'w' Reynolds stress
       N/A  Mean hub u'v' Reynolds stress
       N/A  Mean hub v'w' Reynolds stress


Spatial Coherence Models:

       IEC  u-component coherence model
      NONE  v-component coherence model
      NONE  w-component coherence model
(   12.000, 0.353E-03)  u-component coherence parameters
                   N/A  v-component coherence parameters
                   N/A  w-component coherence parameters
       N/A  Coherence exponent


You have requested that the following file(s) be generated:

   Turbsim_Vhub_81_seednum_316375.Turbsim.bts (AeroDyn/TurbSim full-field wind file)


Turbulence Simulation Scaling Parameter Summary:

   Turbulence model used                            =  IEC Kaimal
   Turbulence characteristic                        =  User-specified
   IEC standard                                     =  IEC 61400-3 Ed. 1: 2006
   Mean wind speed at hub height                    =   81.000 m/s
   Characteristic value of standard deviation       =    8.910 m/s
   Turbulence scale                                 =   42.000 m
   u-component integral scale                       =  340.200 m
   Coherency scale                                  =  340.200 m
   Characteristic value of hub turbulence intensity =   11.000%
   Gradient Richardson number                       =    0.000

   Wind profile type                                =  Power law
   Power law exponent                               =    0.120
   Mean shear across rotor disk                     =    0.116 (m/s)/m
   Assumed rotor diameter                           =  289.500 m
   Surface roughness length                         =    0.030 m

   Nyquist frequency of turbulent wind field        =    5.000 Hz

   Number of time steps in the FFT                  =      600
   Number of time steps output                      =      600
   Number of points simulated                       =      225


Mean Flow Angles:

   Vertical   =   0.0 degrees
   Horizontal =   0.0 degrees

Mean Wind Speed Profile:

   Height    Wind Speed   Horizontal Angle  Vertical Angle  U-comp (X)   V-comp (Y)   W-comp (Z)
     (m)        (m/s)         (degrees)       (degrees)       (m/s)        (m/s)        (m/s)   
   ------    ----------   ----------------  --------------  ----------   ----------   ----------
    294.8       87.84            0.00            0.00         87.84         0.00         0.00
    274.1       87.08            0.00            0.00         87.08         0.00         0.00
    253.4       86.26            0.00            0.00         86.26         0.00         0.00
    232.7       85.38            0.00            0.00         85.38         0.00         0.00
    212.0       84.44            0.00            0.00         84.44         0.00         0.00
    191.4       83.40            0.00            0.00         83.40         0.00         0.00
    170.7       82.27            0.00            0.00         82.27         0.00         0.00
    150.0       81.00            0.00            0.00         81.00         0.00         0.00
    129.3       79.57            0.00            0.00         79.57         0.00         0.00
    108.6       77.92            0.00            0.00         77.92         0.00         0.00
     88.0       75.98            0.00            0.00         75.98         0.00         0.00
     67.3       73.57            0.00            0.00         73.57         0.00         0.00
     46.6       70.40            0.00            0.00         70.40         0.00         0.00
     25.9       65.62            0.00            0.00         65.62         0.00         0.00
      5.2       54.17            0.00            0.00         54.17         0.00         0.00


Harvested Random Seeds after Generation of the Random Numbers:

      1881463 K 1
            0 K 2


Hub-Height Simulated Turbulence Statistical Summary:

   Type of Wind        Min (m/s)   Mean (m/s)    Max (m/s)  Sigma (m/s)       TI (%)
   ----------------    ---------   ----------    ---------  -----------       ------
   Longitudinal (u)        57.99        81.00       101.37        7.179        8.863
   Lateral (v)            -19.98        -0.00        17.92        6.662        8.225
   Vertical (w)           -12.73         0.00        11.93        3.958        4.887
   U component             57.99        81.00       101.37        7.179        8.863
   V component            -19.98        -0.00        17.92        6.662        8.225
   W component            -12.73         0.00        11.93        3.958        4.887
   Horizontal (U&V)        57.99        81.27       101.37        7.204        8.864
   Total                   58.02        81.37       101.38        7.197        8.845

                       Min Reynolds     Mean Reynolds    Max Reynolds    Correlation
   Product             Stress (m/s)^2   Stress (m/s)^2   Stress (m/s)^2  Coefficient
   ----------------    --------------   --------------   --------------  -----------
   u'w'                   -123.184             0.389           143.607         0.014
   u'v'                   -200.328             2.250           220.926         0.047
   v'w'                    -76.874             3.346           110.221         0.127


   Friction Velocity (Ustar)  =      0.623 m/s
   Maximum Instantaneous TKE  =    266.304 (m/s)^2
   Maximum Instantaneous CTKE =    122.301 (m/s)^2


Grid Point Variance Summary:

   Y-coord -175.00 -150.00 -125.00 -100.00  -75.00  -50.00  -25.00    0.00   25.00   50.00   75.00  100.00  125.00  150.00  175.00

   Height   Standard deviation at grid points for the u component:
   294.75    9.068   7.919   7.213   7.685   7.026   6.015   6.513   5.999   6.416   6.937   8.192   8.595   9.031   9.904  11.268
   274.07    8.835   7.614   7.317   7.576   6.709   6.388   6.850   6.791   7.918   5.596   6.976   7.977   8.716  10.793  11.455
   253.39    8.444   7.147   7.262   7.066   6.726   6.411   6.864   6.551   7.946   7.566   6.721   8.602   9.573  10.398  11.214
   232.71    8.755   8.603   7.392   6.616   7.047   6.263   6.497   6.786   7.361   8.450   8.595   8.385   9.119   9.698  10.955
   212.04    8.027   8.183   7.599   7.534   7.046   6.829   6.537   7.706   8.361   9.159  10.136   9.379   8.292   9.169   9.441
   191.36    7.186   8.060   7.339   7.293   7.012   6.450   6.503   7.776   7.789   8.662   9.567   9.036   9.431   9.181   9.343
   170.68    7.788   7.648   7.193   6.225   6.375   6.955   6.954   7.163   7.540   8.477   9.080   8.815   9.046   9.172   8.001
   150.00    7.177   6.979   6.990   6.401   6.898   6.969   6.567   7.179   8.508   8.744   9.050   8.248   8.423   8.274   8.867
   129.32    7.405   6.858   6.866   6.538   6.847   6.984   5.843   7.022   8.646   7.484   7.837   8.058   8.808   8.468   7.775
   108.64    6.784   6.963   6.450   6.779   7.733   6.436   7.285   6.859   7.600   7.799   6.816   7.326   8.324   8.784   9.112
    87.96    6.358   6.871   7.384   8.002   7.773   7.450   7.426   8.402   7.499   7.075   6.006   5.742   7.722   8.554   7.479
    67.29    6.615   6.929   7.801   7.477   8.473   8.615   6.879   8.482   9.005   6.865   6.170   6.417   7.162   7.585   8.110
    46.61    7.510   7.322   7.166   6.717   8.555   8.417   8.510   8.624   8.491   7.659   6.826   6.217   6.497   7.586   8.002
    25.93    8.226   7.358   7.463   7.359   8.714   8.688   8.719   8.309   8.298   7.425   7.090   6.299   5.390   6.768   6.515
     5.25    8.148   7.146   7.453   7.829   8.231   8.481   9.676   7.020   7.399   7.234   7.924   7.611   6.951   6.189   7.519

   Height   Standard deviation at grid points for the v component:
   294.75    6.662   6.662   6.662   6.662   6.662   6.662   6.662   6.662   6.662   6.662   6.662   6.662   6.662   6.662   6.662
   274.07    6.662   6.662   6.662   6.662   6.662   6.662   6.662   6.662   6.662   6.662   6.662   6.662   6.662   6.662   6.662
   253.39    6.662   6.662   6.662   6.662   6.662   6.662   6.662   6.662   6.662   6.662   6.662   6.662   6.662   6.662   6.662
   232.71    6.662   6.662   6.662   6.662   6.662   6.662   6.662   6.662   6.662   6.662   6.662   6.662   6.662   6.662   6.662
   212.04    6.662   6.662   6.662   6.662   6.662   6.662   6.662   6.662   6.662   6.662   6.662   6.662   6.662   6.662   6.662
   191.36    6.662   6.662   6.662   6.662   6.662   6.662   6.662   6.662   6.662   6.662   6.662   6.662   6.662   6.662   6.662
   170.68    6.662   6.662   6.662   6.662   6.662   6.662   6.662   6.662   6.662   6.662   6.662   6.662   6.662   6.662   6.662
   150.00    6.662   6.662   6.662   6.662   6.662   6.662   6.662   6.662   6.662   6.662   6.662   6.662   6.662   6.662   6.662
   129.32    6.662   6.662   6.662   6.662   6.662   6.662   6.662   6.662   6.662   6.662   6.662   6.662   6.662   6.662   6.662
   108.64    6.662   6.662   6.662   6.662   6.662   6.662   6.662   6.662   6.662   6.662   6.662   6.662   6.662   6.662   6.662
    87.96    6.662   6.662   6.662   6.662   6.662   6.662   6.662   6.662   6.662   6.662   6.662   6.662   6.662   6.662   6.662
    67.29    6.662   6.662   6.662   6.662   6.662   6.662   6.662   6.662   6.662   6.662   6.662   6.662   6.662   6.662   6.662
    46.61    6.662   6.662   6.662   6.662   6.662   6.662   6.662   6.662   6.662   6.662   6.662   6.662   6.662   6.662   6.662
    25.93    6.662   6.662   6.662   6.662   6.662   6.662   6.662   6.662   6.662   6.662   6.662   6.662   6.662   6.662   6.662
     5.25    6.662   6.662   6.662   6.662   6.662   6.662   6.662   6.662   6.662   6.662   6.662   6.662   6.662   6.662   6.662

   Height   Standard deviation at grid points for the w component:
   294.75    3.958   3.958   3.958   3.958   3.958   3.958   3.958   3.958   3.958   3.958   3.958   3.958   3.958   3.958   3.958
   274.07    3.958   3.958   3.958   3.958   3.958   3.958   3.958   3.958   3.958   3.958   3.958   3.958   3.958   3.958   3.958
   253.39    3.958   3.958   3.958   3.958   3.958   3.958   3.958   3.958   3.958   3.958   3.958   3.958   3.958   3.958   3.958
   232.71    3.958   3.958   3.958   3.958   3.958   3.958   3.958   3.958   3.958   3.958   3.958   3.958   3.958   3.958   3.958
   212.04    3.958   3.958   3.958   3.958   3.958   3.958   3.958   3.958   3.958   3.958   3.958   3.958   3.958   3.958   3.958
   191.36    3.958   3.958   3.958   3.958   3.958   3.958   3.958   3.958   3.958   3.958   3.958   3.958   3.958   3.958   3.958
   170.68    3.958   3.958   3.958   3.958   3.958   3.958   3.958   3.958   3.958   3.958   3.958   3.958   3.958   3.958   3.958
   150.00    3.958   3.958   3.958   3.958   3.958   3.958   3.958   3.958   3.958   3.958   3.958   3.958   3.958   3.958   3.958
   129.32    3.958   3.958   3.958   3.958   3.958   3.958   3.958   3.958   3.958   3.958   3.958   3.958   3.958   3.958   3.958
   108.64    3.958   3.958   3.958   3.958   3.958   3.958   3.958   3.958   3.958   3.958   3.958   3.958   3.958   3.958   3.958
    87.96    3.958   3.958   3.958   3.958   3.958   3.958   3.958   3.958   3.958   3.958   3.958   3.958   3.958   3.958   3.958
    67.29    3.958   3.958   3.958   3.958   3.958   3.958   3.958   3.958   3.958   3.958   3.958   3.958   3.958   3.958   3.958
    46.61    3.958   3.958   3.958   3.958   3.958   3.958   3.958   3.958   3.958   3.958   3.958   3.958   3.958   3.958   3.958
    25.93    3.958   3.958   3.958   3.958   3.958   3.958   3.958   3.958   3.958   3.958   3.958   3.958   3.958   3.958   3.958
     5.25    3.958   3.958   3.958   3.958   3.958   3.958   3.958   3.958   3.958   3.958   3.958   3.958   3.958   3.958   3.958

   Mean standard deviation across all grid points:
      u component:    7.717 m/s
      v component:    6.662 m/s
      w component:    3.958 m/s


U-component (X) statistics from the interpolated hub point:

   Mean =  81.0000 m/s
   TI   =   8.8628 %


Processing complete.  8.6969 CPU seconds used.
