
This summary file was generated by TurbSim (from OpenFAST-v3.5.1-607-g88e18ed3) on 14-Dec-2024 at 20:00:45.


Runtime Options:

    872176  Random seed #1
    RANLUX  Type of random number generator
         F  Output binary HH turbulence parameters?
         F  Output formatted turbulence parameters?
         F  Output AeroDyn HH files?
         T  Output AeroDyn FF files?
         F  Output BLADED FF files?
         F  Output tower data?
         F  Output HAWC FF files?
         F  Output formatted FF files?
         T  Output coherent turbulence time step file?
 0 -  NONE  IEC turbulence models scaled to exact specified standard deviation


Turbine/Model Specifications:

        15  Vertical grid-point matrix dimension
        15  Horizontal grid-point matrix dimension
     0.100  Time step [seconds]
    60.000  Analysis time [seconds]
    60.000  Usable output time [seconds]
   150.000  Hub height [m]
   289.500  Grid height [m]
   350.000  Grid width [m]
     0.000  Vertical flow angle [degrees]
     0.000  Horizontal flow angle [degrees]


Meteorological Boundary Conditions:

    IECKAI  IEC Kaimal spectral model
         3  IEC standard: IEC 61400-3 Ed. 1: 2006
    11.000  Percent turbulence intensity, IEC 61400-3 Ed. 1: 2006
       NTM  IEC Normal Turbulence Model
       N/A  IEC Extreme Turbulence Model (ETM) "c" parameter [m/s]
       PL   Wind profile type
   150.000  Reference height [m]
    25.000  Reference wind speed [m/s]
       N/A  Jet height [m]
     0.120  Power law exponent
     0.030  Surface roughness length [m]


Non-IEC Meteorological Boundary Conditions:

       N/A  Site latitude [degrees]
       N/A  Gradient Richardson number
       N/A  Friction or shear velocity [m/s]
       N/A  Mixing layer depth [m]
       N/A  Mean hub u'w' Reynolds stress
       N/A  Mean hub u'v' Reynolds stress
       N/A  Mean hub v'w' Reynolds stress


Spatial Coherence Models:

       IEC  u-component coherence model
      NONE  v-component coherence model
      NONE  w-component coherence model
(   12.000, 0.353E-03)  u-component coherence parameters
                   N/A  v-component coherence parameters
                   N/A  w-component coherence parameters
       N/A  Coherence exponent


You have requested that the following file(s) be generated:

   Turbsim_Vhub_25_seednum_872176.Turbsim.bts (AeroDyn/TurbSim full-field wind file)


Turbulence Simulation Scaling Parameter Summary:

   Turbulence model used                            =  IEC Kaimal
   Turbulence characteristic                        =  User-specified
   IEC standard                                     =  IEC 61400-3 Ed. 1: 2006
   Mean wind speed at hub height                    =   25.000 m/s
   Characteristic value of standard deviation       =    2.750 m/s
   Turbulence scale                                 =   42.000 m
   u-component integral scale                       =  340.200 m
   Coherency scale                                  =  340.200 m
   Characteristic value of hub turbulence intensity =   11.000%
   Gradient Richardson number                       =    0.000

   Wind profile type                                =  Power law
   Power law exponent                               =    0.120
   Mean shear across rotor disk                     =    0.036 (m/s)/m
   Assumed rotor diameter                           =  289.500 m
   Surface roughness length                         =    0.030 m

   Nyquist frequency of turbulent wind field        =    5.000 Hz

   Number of time steps in the FFT                  =      600
   Number of time steps output                      =      600
   Number of points simulated                       =      225


Mean Flow Angles:

   Vertical   =   0.0 degrees
   Horizontal =   0.0 degrees

Mean Wind Speed Profile:

   Height    Wind Speed   Horizontal Angle  Vertical Angle  U-comp (X)   V-comp (Y)   W-comp (Z)
     (m)        (m/s)         (degrees)       (degrees)       (m/s)        (m/s)        (m/s)   
   ------    ----------   ----------------  --------------  ----------   ----------   ----------
    294.8       27.11            0.00            0.00         27.11         0.00         0.00
    274.1       26.88            0.00            0.00         26.88         0.00         0.00
    253.4       26.62            0.00            0.00         26.62         0.00         0.00
    232.7       26.35            0.00            0.00         26.35         0.00         0.00
    212.0       26.06            0.00            0.00         26.06         0.00         0.00
    191.4       25.74            0.00            0.00         25.74         0.00         0.00
    170.7       25.39            0.00            0.00         25.39         0.00         0.00
    150.0       25.00            0.00            0.00         25.00         0.00         0.00
    129.3       24.56            0.00            0.00         24.56         0.00         0.00
    108.6       24.05            0.00            0.00         24.05         0.00         0.00
     88.0       23.45            0.00            0.00         23.45         0.00         0.00
     67.3       22.71            0.00            0.00         22.71         0.00         0.00
     46.6       21.73            0.00            0.00         21.73         0.00         0.00
     25.9       20.25            0.00            0.00         20.25         0.00         0.00
      5.2       16.72            0.00            0.00         16.72         0.00         0.00


Harvested Random Seeds after Generation of the Random Numbers:

      1881463 K 1
            0 K 2


Hub-Height Simulated Turbulence Statistical Summary:

   Type of Wind        Min (m/s)   Mean (m/s)    Max (m/s)  Sigma (m/s)       TI (%)
   ----------------    ---------   ----------    ---------  -----------       ------
   Longitudinal (u)        19.63        25.00        30.51        2.284        9.135
   Lateral (v)             -5.26        -0.00         5.41        2.004        8.015
   Vertical (w)            -3.57        -0.00         3.74        1.282        5.128
   U component             19.63        25.00        30.51        2.284        9.135
   V component             -5.26        -0.00         5.41        2.004        8.015
   W component             -3.57        -0.00         3.74        1.282        5.128
   Horizontal (U&V)        19.63        25.08        30.51        2.270        9.050
   Total                   19.69        25.11        30.51        2.272        9.048

                       Min Reynolds     Mean Reynolds    Max Reynolds    Correlation
   Product             Stress (m/s)^2   Stress (m/s)^2   Stress (m/s)^2  Coefficient
   ----------------    --------------   --------------   --------------  -----------
   u'w'                    -10.306             0.259             9.465         0.088
   u'v'                    -15.897             1.447            20.010         0.316
   v'w'                     -9.644             0.443            11.010         0.172


   Friction Velocity (Ustar)  =      0.508 m/s
   Maximum Instantaneous TKE  =     20.147 (m/s)^2
   Maximum Instantaneous CTKE =     10.135 (m/s)^2


Grid Point Variance Summary:

   Y-coord -175.00 -150.00 -125.00 -100.00  -75.00  -50.00  -25.00    0.00   25.00   50.00   75.00  100.00  125.00  150.00  175.00

   Height   Standard deviation at grid points for the u component:
   294.75    1.837   1.437   2.324   2.694   3.028   2.428   1.661   2.137   1.932   2.011   2.032   2.176   1.850   2.084   1.961
   274.07    1.875   2.242   2.134   2.334   2.361   2.494   2.354   2.086   1.798   1.924   2.111   2.144   2.019   1.634   2.007
   253.39    1.954   2.011   2.086   2.379   2.091   2.332   2.128   1.700   1.698   2.205   2.200   2.012   2.276   2.081   1.759
   232.71    1.862   2.072   1.970   1.996   2.068   2.196   2.073   1.800   1.855   1.927   2.359   2.479   2.091   2.260   1.929
   212.04    1.816   1.727   2.156   2.345   1.938   2.082   1.984   2.327   2.351   2.250   2.343   2.071   2.009   1.976   1.983
   191.36    1.675   2.172   2.455   2.427   1.921   1.930   1.693   2.540   2.097   2.121   1.892   1.968   1.589   2.173   1.832
   170.68    1.797   1.940   2.037   1.851   2.082   1.844   2.406   2.772   2.145   2.228   1.958   2.495   1.739   2.061   2.490
   150.00    1.798   1.661   1.682   1.884   1.845   1.905   2.623   2.284   2.456   2.768   3.007   2.578   2.497   2.112   2.593
   129.32    2.060   1.819   2.111   2.454   1.931   2.777   2.638   2.042   2.385   2.472   2.959   3.090   2.775   2.761   2.340
   108.64    2.776   2.315   2.317   2.383   2.321   2.598   2.999   2.382   2.250   2.356   2.772   2.811   3.063   2.664   1.869
    87.96    2.310   2.546   2.441   2.467   2.603   2.328   2.497   2.492   1.966   2.273   2.461   2.628   2.452   2.161   2.217
    67.29    1.867   2.460   2.706   3.162   3.040   2.082   2.460   2.107   2.085   2.556   2.829   2.986   2.889   2.682   2.624
    46.61    2.260   1.944   2.667   2.759   2.596   2.176   2.162   2.204   1.954   2.039   2.174   2.528   2.528   3.019   2.393
    25.93    2.278   1.755   2.306   2.245   1.964   2.010   2.356   2.302   2.368   2.156   2.676   2.098   2.533   2.520   2.700
     5.25    2.252   2.375   1.983   2.139   2.572   1.833   2.264   2.431   2.348   2.580   2.563   2.326   2.314   2.160   2.488

   Height   Standard deviation at grid points for the v component:
   294.75    2.004   2.004   2.004   2.004   2.004   2.004   2.004   2.004   2.004   2.004   2.004   2.004   2.004   2.004   2.004
   274.07    2.004   2.004   2.004   2.004   2.004   2.004   2.004   2.004   2.004   2.004   2.004   2.004   2.004   2.004   2.004
   253.39    2.004   2.004   2.004   2.004   2.004   2.004   2.004   2.004   2.004   2.004   2.004   2.004   2.004   2.004   2.004
   232.71    2.004   2.004   2.004   2.004   2.004   2.004   2.004   2.004   2.004   2.004   2.004   2.004   2.004   2.004   2.004
   212.04    2.004   2.004   2.004   2.004   2.004   2.004   2.004   2.004   2.004   2.004   2.004   2.004   2.004   2.004   2.004
   191.36    2.004   2.004   2.004   2.004   2.004   2.004   2.004   2.004   2.004   2.004   2.004   2.004   2.004   2.004   2.004
   170.68    2.004   2.004   2.004   2.004   2.004   2.004   2.004   2.004   2.004   2.004   2.004   2.004   2.004   2.004   2.004
   150.00    2.004   2.004   2.004   2.004   2.004   2.004   2.004   2.004   2.004   2.004   2.004   2.004   2.004   2.004   2.004
   129.32    2.004   2.004   2.004   2.004   2.004   2.004   2.004   2.004   2.004   2.004   2.004   2.004   2.004   2.004   2.004
   108.64    2.004   2.004   2.004   2.004   2.004   2.004   2.004   2.004   2.004   2.004   2.004   2.004   2.004   2.004   2.004
    87.96    2.004   2.004   2.004   2.004   2.004   2.004   2.004   2.004   2.004   2.004   2.004   2.004   2.004   2.004   2.004
    67.29    2.004   2.004   2.004   2.004   2.004   2.004   2.004   2.004   2.004   2.004   2.004   2.004   2.004   2.004   2.004
    46.61    2.004   2.004   2.004   2.004   2.004   2.004   2.004   2.004   2.004   2.004   2.004   2.004   2.004   2.004   2.004
    25.93    2.004   2.004   2.004   2.004   2.004   2.004   2.004   2.004   2.004   2.004   2.004   2.004   2.004   2.004   2.004
     5.25    2.004   2.004   2.004   2.004   2.004   2.004   2.004   2.004   2.004   2.004   2.004   2.004   2.004   2.004   2.004

   Height   Standard deviation at grid points for the w component:
   294.75    1.282   1.282   1.282   1.282   1.282   1.282   1.282   1.282   1.282   1.282   1.282   1.282   1.282   1.282   1.282
   274.07    1.282   1.282   1.282   1.282   1.282   1.282   1.282   1.282   1.282   1.282   1.282   1.282   1.282   1.282   1.282
   253.39    1.282   1.282   1.282   1.282   1.282   1.282   1.282   1.282   1.282   1.282   1.282   1.282   1.282   1.282   1.282
   232.71    1.282   1.282   1.282   1.282   1.282   1.282   1.282   1.282   1.282   1.282   1.282   1.282   1.282   1.282   1.282
   212.04    1.282   1.282   1.282   1.282   1.282   1.282   1.282   1.282   1.282   1.282   1.282   1.282   1.282   1.282   1.282
   191.36    1.282   1.282   1.282   1.282   1.282   1.282   1.282   1.282   1.282   1.282   1.282   1.282   1.282   1.282   1.282
   170.68    1.282   1.282   1.282   1.282   1.282   1.282   1.282   1.282   1.282   1.282   1.282   1.282   1.282   1.282   1.282
   150.00    1.282   1.282   1.282   1.282   1.282   1.282   1.282   1.282   1.282   1.282   1.282   1.282   1.282   1.282   1.282
   129.32    1.282   1.282   1.282   1.282   1.282   1.282   1.282   1.282   1.282   1.282   1.282   1.282   1.282   1.282   1.282
   108.64    1.282   1.282   1.282   1.282   1.282   1.282   1.282   1.282   1.282   1.282   1.282   1.282   1.282   1.282   1.282
    87.96    1.282   1.282   1.282   1.282   1.282   1.282   1.282   1.282   1.282   1.282   1.282   1.282   1.282   1.282   1.282
    67.29    1.282   1.282   1.282   1.282   1.282   1.282   1.282   1.282   1.282   1.282   1.282   1.282   1.282   1.282   1.282
    46.61    1.282   1.282   1.282   1.282   1.282   1.282   1.282   1.282   1.282   1.282   1.282   1.282   1.282   1.282   1.282
    25.93    1.282   1.282   1.282   1.282   1.282   1.282   1.282   1.282   1.282   1.282   1.282   1.282   1.282   1.282   1.282
     5.25    1.282   1.282   1.282   1.282   1.282   1.282   1.282   1.282   1.282   1.282   1.282   1.282   1.282   1.282   1.282

   Mean standard deviation across all grid points:
      u component:    2.247 m/s
      v component:    2.004 m/s
      w component:    1.282 m/s


U-component (X) statistics from the interpolated hub point:

   Mean =  25.0000 m/s
   TI   =   9.1346 %


Processing complete.  9.6038 CPU seconds used.
