
This summary file was generated by TurbSim (from OpenFAST-v3.5.1-607-g88e18ed3) on 14-Dec-2024 at 20:03:55.


Runtime Options:

    964515  Random seed #1
    RANLUX  Type of random number generator
         F  Output binary HH turbulence parameters?
         F  Output formatted turbulence parameters?
         F  Output AeroDyn HH files?
         T  Output AeroDyn FF files?
         F  Output BLADED FF files?
         F  Output tower data?
         F  Output HAWC FF files?
         F  Output formatted FF files?
         T  Output coherent turbulence time step file?
 0 -  NONE  IEC turbulence models scaled to exact specified standard deviation


Turbine/Model Specifications:

        15  Vertical grid-point matrix dimension
        15  Horizontal grid-point matrix dimension
     0.100  Time step [seconds]
    60.000  Analysis time [seconds]
    60.000  Usable output time [seconds]
   150.000  Hub height [m]
   289.500  Grid height [m]
   350.000  Grid width [m]
     0.000  Vertical flow angle [degrees]
     0.000  Horizontal flow angle [degrees]


Meteorological Boundary Conditions:

    IECKAI  IEC Kaimal spectral model
         3  IEC standard: IEC 61400-3 Ed. 1: 2006
    11.000  Percent turbulence intensity, IEC 61400-3 Ed. 1: 2006
       NTM  IEC Normal Turbulence Model
       N/A  IEC Extreme Turbulence Model (ETM) "c" parameter [m/s]
       PL   Wind profile type
   150.000  Reference height [m]
    97.000  Reference wind speed [m/s]
       N/A  Jet height [m]
     0.120  Power law exponent
     0.030  Surface roughness length [m]


Non-IEC Meteorological Boundary Conditions:

       N/A  Site latitude [degrees]
       N/A  Gradient Richardson number
       N/A  Friction or shear velocity [m/s]
       N/A  Mixing layer depth [m]
       N/A  Mean hub u'w' Reynolds stress
       N/A  Mean hub u'v' Reynolds stress
       N/A  Mean hub v'w' Reynolds stress


Spatial Coherence Models:

       IEC  u-component coherence model
      NONE  v-component coherence model
      NONE  w-component coherence model
(   12.000, 0.353E-03)  u-component coherence parameters
                   N/A  v-component coherence parameters
                   N/A  w-component coherence parameters
       N/A  Coherence exponent


You have requested that the following file(s) be generated:

   Turbsim_Vhub_97_seednum_964515.Turbsim.bts (AeroDyn/TurbSim full-field wind file)


Turbulence Simulation Scaling Parameter Summary:

   Turbulence model used                            =  IEC Kaimal
   Turbulence characteristic                        =  User-specified
   IEC standard                                     =  IEC 61400-3 Ed. 1: 2006
   Mean wind speed at hub height                    =   97.000 m/s
   Characteristic value of standard deviation       =   10.670 m/s
   Turbulence scale                                 =   42.000 m
   u-component integral scale                       =  340.200 m
   Coherency scale                                  =  340.200 m
   Characteristic value of hub turbulence intensity =   11.000%
   Gradient Richardson number                       =    0.000

   Wind profile type                                =  Power law
   Power law exponent                               =    0.120
   Mean shear across rotor disk                     =    0.139 (m/s)/m
   Assumed rotor diameter                           =  289.500 m
   Surface roughness length                         =    0.030 m

   Nyquist frequency of turbulent wind field        =    5.000 Hz

   Number of time steps in the FFT                  =      600
   Number of time steps output                      =      600
   Number of points simulated                       =      225


Mean Flow Angles:

   Vertical   =   0.0 degrees
   Horizontal =   0.0 degrees

Mean Wind Speed Profile:

   Height    Wind Speed   Horizontal Angle  Vertical Angle  U-comp (X)   V-comp (Y)   W-comp (Z)
     (m)        (m/s)         (degrees)       (degrees)       (m/s)        (m/s)        (m/s)   
   ------    ----------   ----------------  --------------  ----------   ----------   ----------
    294.8      105.19            0.00            0.00        105.19         0.00         0.00
    274.1      104.28            0.00            0.00        104.28         0.00         0.00
    253.4      103.30            0.00            0.00        103.30         0.00         0.00
    232.7      102.25            0.00            0.00        102.25         0.00         0.00
    212.0      101.11            0.00            0.00        101.11         0.00         0.00
    191.4       99.88            0.00            0.00         99.88         0.00         0.00
    170.7       98.51            0.00            0.00         98.51         0.00         0.00
    150.0       97.00            0.00            0.00         97.00         0.00         0.00
    129.3       95.29            0.00            0.00         95.29         0.00         0.00
    108.6       93.32            0.00            0.00         93.32         0.00         0.00
     88.0       90.98            0.00            0.00         90.98         0.00         0.00
     67.3       88.10            0.00            0.00         88.10         0.00         0.00
     46.6       84.31            0.00            0.00         84.31         0.00         0.00
     25.9       78.58            0.00            0.00         78.58         0.00         0.00
      5.2       64.87            0.00            0.00         64.87         0.00         0.00


Harvested Random Seeds after Generation of the Random Numbers:

      1881463 K 1
            0 K 2


Hub-Height Simulated Turbulence Statistical Summary:

   Type of Wind        Min (m/s)   Mean (m/s)    Max (m/s)  Sigma (m/s)       TI (%)
   ----------------    ---------   ----------    ---------  -----------       ------
   Longitudinal (u)        70.56        97.00       131.28       11.058       11.400
   Lateral (v)            -26.24        -0.00        21.63        7.965        8.211
   Vertical (w)           -14.94         0.00        13.32        4.677        4.822
   U component             70.56        97.00       131.28       11.058       11.400
   V component            -26.24        -0.00        21.63        7.965        8.211
   W component            -14.94         0.00        13.32        4.677        4.822
   Horizontal (U&V)        71.75        97.33       131.39       11.039       11.342
   Total                   71.85        97.44       131.40       11.012       11.301

                       Min Reynolds     Mean Reynolds    Max Reynolds    Correlation
   Product             Stress (m/s)^2   Stress (m/s)^2   Stress (m/s)^2  Coefficient
   ----------------    --------------   --------------   --------------  -----------
   u'w'                   -253.218             3.066           169.644         0.059
   u'v'                   -442.157            -7.706           296.311        -0.087
   v'w'                   -194.524             1.544           153.217         0.041


   Friction Velocity (Ustar)  =      1.751 m/s
   Maximum Instantaneous TKE  =    603.944 (m/s)^2
   Maximum Instantaneous CTKE =    233.692 (m/s)^2


Grid Point Variance Summary:

   Y-coord -175.00 -150.00 -125.00 -100.00  -75.00  -50.00  -25.00    0.00   25.00   50.00   75.00  100.00  125.00  150.00  175.00

   Height   Standard deviation at grid points for the u component:
   294.75   10.282   9.215  10.301  11.602  10.934  10.958  11.964  11.793  11.735  12.781  11.247  10.517  11.522  12.102  13.539
   274.07   10.717   9.963  11.818  10.936  11.750  10.637  11.362  12.617  12.886  11.943  12.177  12.404  11.824  13.402  13.730
   253.39   11.469  11.823  11.350  10.430  11.100   9.768  10.318  11.720  11.979  10.600  11.158  11.292  11.927  13.848  14.339
   232.71   10.456  10.892  10.939   9.755   9.925  10.562  10.551  10.608  10.953  10.163  10.719  11.690  13.533  14.556  13.423
   212.04   12.772  12.299  10.383   9.881  11.464  11.208  12.129  12.619  11.206  12.097  11.118  12.794  13.202  13.339  13.326
   191.36   13.147  12.119  11.628   9.832  11.239  11.284  12.153  13.614  12.394  10.894  12.737  12.112  12.093  12.149  12.501
   170.68   12.629  12.632  10.973  10.375  10.638  10.687  10.657  12.036  11.062  11.748  11.346  12.486  12.464  11.976  12.032
   150.00   12.854  12.693  12.047  11.157  10.353  11.140  10.438  11.058  10.391  10.589  11.581  11.822  11.904  11.037  12.277
   129.32   12.049  11.804  11.559  11.504  10.650  10.085  10.264  11.550   9.955   9.514  10.350  11.807  11.495  11.268  10.683
   108.64   10.905  11.000  11.274  11.457  11.197  10.728  11.132  10.228  11.642  10.211   9.702  10.791  10.263   9.911  10.103
    87.96   11.433  10.213  10.530  10.776  10.502  11.618  11.224  11.844  13.058  11.142  10.524  11.099  10.506  10.216   9.903
    67.29   10.181   9.915   9.915  10.745   9.575  10.854  11.616  12.409  12.880  10.505   9.878  10.484   9.220   9.804  10.795
    46.61    9.955   8.943   8.949  10.138   9.777  12.118  12.203  11.933  12.534  10.541   8.371   9.195   8.703   9.666  10.023
    25.93    9.081   8.575   8.873   9.365   9.733  11.284  11.777  12.628  12.386  11.449   9.467   9.014   8.969   9.298   9.485
     5.25    9.835  10.156   9.845   9.461   9.295   9.990  11.170  12.331  12.377  11.583   9.082   9.150   9.231   9.016   9.077

   Height   Standard deviation at grid points for the v component:
   294.75    7.965   7.965   7.965   7.965   7.965   7.965   7.965   7.965   7.965   7.965   7.965   7.965   7.965   7.965   7.965
   274.07    7.965   7.965   7.965   7.965   7.965   7.965   7.965   7.965   7.965   7.965   7.965   7.965   7.965   7.965   7.965
   253.39    7.965   7.965   7.965   7.965   7.965   7.965   7.965   7.965   7.965   7.965   7.965   7.965   7.965   7.965   7.965
   232.71    7.965   7.965   7.965   7.965   7.965   7.965   7.965   7.965   7.965   7.965   7.965   7.965   7.965   7.965   7.965
   212.04    7.965   7.965   7.965   7.965   7.965   7.965   7.965   7.965   7.965   7.965   7.965   7.965   7.965   7.965   7.965
   191.36    7.965   7.965   7.965   7.965   7.965   7.965   7.965   7.965   7.965   7.965   7.965   7.965   7.965   7.965   7.965
   170.68    7.965   7.965   7.965   7.965   7.965   7.965   7.965   7.965   7.965   7.965   7.965   7.965   7.965   7.965   7.965
   150.00    7.965   7.965   7.965   7.965   7.965   7.965   7.965   7.965   7.965   7.965   7.965   7.965   7.965   7.965   7.965
   129.32    7.965   7.965   7.965   7.965   7.965   7.965   7.965   7.965   7.965   7.965   7.965   7.965   7.965   7.965   7.965
   108.64    7.965   7.965   7.965   7.965   7.965   7.965   7.965   7.965   7.965   7.965   7.965   7.965   7.965   7.965   7.965
    87.96    7.965   7.965   7.965   7.965   7.965   7.965   7.965   7.965   7.965   7.965   7.965   7.965   7.965   7.965   7.965
    67.29    7.965   7.965   7.965   7.965   7.965   7.965   7.965   7.965   7.965   7.965   7.965   7.965   7.965   7.965   7.965
    46.61    7.965   7.965   7.965   7.965   7.965   7.965   7.965   7.965   7.965   7.965   7.965   7.965   7.965   7.965   7.965
    25.93    7.965   7.965   7.965   7.965   7.965   7.965   7.965   7.965   7.965   7.965   7.965   7.965   7.965   7.965   7.965
     5.25    7.965   7.965   7.965   7.965   7.965   7.965   7.965   7.965   7.965   7.965   7.965   7.965   7.965   7.965   7.965

   Height   Standard deviation at grid points for the w component:
   294.75    4.677   4.677   4.677   4.677   4.677   4.677   4.677   4.677   4.677   4.677   4.677   4.677   4.677   4.677   4.677
   274.07    4.677   4.677   4.677   4.677   4.677   4.677   4.677   4.677   4.677   4.677   4.677   4.677   4.677   4.677   4.677
   253.39    4.677   4.677   4.677   4.677   4.677   4.677   4.677   4.677   4.677   4.677   4.677   4.677   4.677   4.677   4.677
   232.71    4.677   4.677   4.677   4.677   4.677   4.677   4.677   4.677   4.677   4.677   4.677   4.677   4.677   4.677   4.677
   212.04    4.677   4.677   4.677   4.677   4.677   4.677   4.677   4.677   4.677   4.677   4.677   4.677   4.677   4.677   4.677
   191.36    4.677   4.677   4.677   4.677   4.677   4.677   4.677   4.677   4.677   4.677   4.677   4.677   4.677   4.677   4.677
   170.68    4.677   4.677   4.677   4.677   4.677   4.677   4.677   4.677   4.677   4.677   4.677   4.677   4.677   4.677   4.677
   150.00    4.677   4.677   4.677   4.677   4.677   4.677   4.677   4.677   4.677   4.677   4.677   4.677   4.677   4.677   4.677
   129.32    4.677   4.677   4.677   4.677   4.677   4.677   4.677   4.677   4.677   4.677   4.677   4.677   4.677   4.677   4.677
   108.64    4.677   4.677   4.677   4.677   4.677   4.677   4.677   4.677   4.677   4.677   4.677   4.677   4.677   4.677   4.677
    87.96    4.677   4.677   4.677   4.677   4.677   4.677   4.677   4.677   4.677   4.677   4.677   4.677   4.677   4.677   4.677
    67.29    4.677   4.677   4.677   4.677   4.677   4.677   4.677   4.677   4.677   4.677   4.677   4.677   4.677   4.677   4.677
    46.61    4.677   4.677   4.677   4.677   4.677   4.677   4.677   4.677   4.677   4.677   4.677   4.677   4.677   4.677   4.677
    25.93    4.677   4.677   4.677   4.677   4.677   4.677   4.677   4.677   4.677   4.677   4.677   4.677   4.677   4.677   4.677
     5.25    4.677   4.677   4.677   4.677   4.677   4.677   4.677   4.677   4.677   4.677   4.677   4.677   4.677   4.677   4.677

   Mean standard deviation across all grid points:
      u component:   11.110 m/s
      v component:    7.965 m/s
      w component:    4.677 m/s


U-component (X) statistics from the interpolated hub point:

   Mean =  97.0000 m/s
   TI   =  11.4003 %


Processing complete.  8.9086 CPU seconds used.
