
This summary file was generated by TurbSim (from OpenFAST-v3.5.1-607-g88e18ed3) on 14-Dec-2024 at 20:03:08.


Runtime Options:

    595545  Random seed #1
    RANLUX  Type of random number generator
         F  Output binary HH turbulence parameters?
         F  Output formatted turbulence parameters?
         F  Output AeroDyn HH files?
         T  Output AeroDyn FF files?
         F  Output BLADED FF files?
         F  Output tower data?
         F  Output HAWC FF files?
         F  Output formatted FF files?
         T  Output coherent turbulence time step file?
 0 -  NONE  IEC turbulence models scaled to exact specified standard deviation


Turbine/Model Specifications:

        15  Vertical grid-point matrix dimension
        15  Horizontal grid-point matrix dimension
     0.100  Time step [seconds]
    60.000  Analysis time [seconds]
    60.000  Usable output time [seconds]
   150.000  Hub height [m]
   289.500  Grid height [m]
   350.000  Grid width [m]
     0.000  Vertical flow angle [degrees]
     0.000  Horizontal flow angle [degrees]


Meteorological Boundary Conditions:

    IECKAI  IEC Kaimal spectral model
         3  IEC standard: IEC 61400-3 Ed. 1: 2006
    11.000  Percent turbulence intensity, IEC 61400-3 Ed. 1: 2006
       NTM  IEC Normal Turbulence Model
       N/A  IEC Extreme Turbulence Model (ETM) "c" parameter [m/s]
       PL   Wind profile type
   150.000  Reference height [m]
    65.000  Reference wind speed [m/s]
       N/A  Jet height [m]
     0.120  Power law exponent
     0.030  Surface roughness length [m]


Non-IEC Meteorological Boundary Conditions:

       N/A  Site latitude [degrees]
       N/A  Gradient Richardson number
       N/A  Friction or shear velocity [m/s]
       N/A  Mixing layer depth [m]
       N/A  Mean hub u'w' Reynolds stress
       N/A  Mean hub u'v' Reynolds stress
       N/A  Mean hub v'w' Reynolds stress


Spatial Coherence Models:

       IEC  u-component coherence model
      NONE  v-component coherence model
      NONE  w-component coherence model
(   12.000, 0.353E-03)  u-component coherence parameters
                   N/A  v-component coherence parameters
                   N/A  w-component coherence parameters
       N/A  Coherence exponent


You have requested that the following file(s) be generated:

   Turbsim_Vhub_65_seednum_595545.Turbsim.bts (AeroDyn/TurbSim full-field wind file)


Turbulence Simulation Scaling Parameter Summary:

   Turbulence model used                            =  IEC Kaimal
   Turbulence characteristic                        =  User-specified
   IEC standard                                     =  IEC 61400-3 Ed. 1: 2006
   Mean wind speed at hub height                    =   65.000 m/s
   Characteristic value of standard deviation       =    7.150 m/s
   Turbulence scale                                 =   42.000 m
   u-component integral scale                       =  340.200 m
   Coherency scale                                  =  340.200 m
   Characteristic value of hub turbulence intensity =   11.000%
   Gradient Richardson number                       =    0.000

   Wind profile type                                =  Power law
   Power law exponent                               =    0.120
   Mean shear across rotor disk                     =    0.093 (m/s)/m
   Assumed rotor diameter                           =  289.500 m
   Surface roughness length                         =    0.030 m

   Nyquist frequency of turbulent wind field        =    5.000 Hz

   Number of time steps in the FFT                  =      600
   Number of time steps output                      =      600
   Number of points simulated                       =      225


Mean Flow Angles:

   Vertical   =   0.0 degrees
   Horizontal =   0.0 degrees

Mean Wind Speed Profile:

   Height    Wind Speed   Horizontal Angle  Vertical Angle  U-comp (X)   V-comp (Y)   W-comp (Z)
     (m)        (m/s)         (degrees)       (degrees)       (m/s)        (m/s)        (m/s)   
   ------    ----------   ----------------  --------------  ----------   ----------   ----------
    294.8       70.49            0.00            0.00         70.49         0.00         0.00
    274.1       69.88            0.00            0.00         69.88         0.00         0.00
    253.4       69.22            0.00            0.00         69.22         0.00         0.00
    232.7       68.52            0.00            0.00         68.52         0.00         0.00
    212.0       67.76            0.00            0.00         67.76         0.00         0.00
    191.4       66.93            0.00            0.00         66.93         0.00         0.00
    170.7       66.02            0.00            0.00         66.02         0.00         0.00
    150.0       65.00            0.00            0.00         65.00         0.00         0.00
    129.3       63.85            0.00            0.00         63.85         0.00         0.00
    108.6       62.53            0.00            0.00         62.53         0.00         0.00
     88.0       60.97            0.00            0.00         60.97         0.00         0.00
     67.3       59.04            0.00            0.00         59.04         0.00         0.00
     46.6       56.49            0.00            0.00         56.49         0.00         0.00
     25.9       52.65            0.00            0.00         52.65         0.00         0.00
      5.2       43.47            0.00            0.00         43.47         0.00         0.00


Harvested Random Seeds after Generation of the Random Numbers:

      1881463 K 1
            0 K 2


Hub-Height Simulated Turbulence Statistical Summary:

   Type of Wind        Min (m/s)   Mean (m/s)    Max (m/s)  Sigma (m/s)       TI (%)
   ----------------    ---------   ----------    ---------  -----------       ------
   Longitudinal (u)        48.58        65.00        86.69        7.222       11.111
   Lateral (v)            -15.98         0.00        19.03        5.348        8.227
   Vertical (w)           -10.23         0.00        11.36        3.221        4.956
   U component             48.58        65.00        86.69        7.222       11.111
   V component            -15.98         0.00        19.03        5.348        8.227
   W component            -10.23         0.00        11.36        3.221        4.956
   Horizontal (U&V)        48.59        65.22        86.69        7.241       11.102
   Total                   48.59        65.30        86.76        7.237       11.083

                       Min Reynolds     Mean Reynolds    Max Reynolds    Correlation
   Product             Stress (m/s)^2   Stress (m/s)^2   Stress (m/s)^2  Coefficient
   ----------------    --------------   --------------   --------------  -----------
   u'w'                   -133.546            -1.099           105.900        -0.047
   u'v'                   -191.829            -3.354           125.344        -0.087
   v'w'                   -103.097            -0.607            77.743        -0.035


   Friction Velocity (Ustar)  =      1.048 m/s
   Maximum Instantaneous TKE  =    241.238 (m/s)^2
   Maximum Instantaneous CTKE =     96.193 (m/s)^2


Grid Point Variance Summary:

   Y-coord -175.00 -150.00 -125.00 -100.00  -75.00  -50.00  -25.00    0.00   25.00   50.00   75.00  100.00  125.00  150.00  175.00

   Height   Standard deviation at grid points for the u component:
   294.75    6.777   5.713   6.427   6.756   5.855   6.404   5.853   5.722   6.163   5.504   5.283   6.921   6.648   6.899   5.860
   274.07    6.615   6.703   5.962   5.801   6.193   6.059   5.330   6.011   5.445   5.642   5.080   7.062   7.304   6.732   6.006
   253.39    7.449   8.599   7.276   6.590   5.970   6.494   5.576   5.868   6.461   7.079   6.464   7.318   7.596   6.476   6.592
   232.71    6.966   7.237   8.265   7.290   7.346   7.358   5.934   6.400   6.548   7.376   7.174   7.125   7.531   6.305   5.737
   212.04    6.640   7.005   7.316   7.662   6.986   7.247   6.517   6.208   7.006   6.691   7.148   7.327   7.925   6.053   5.605
   191.36    7.510   8.656   7.377   7.492   7.694   8.141   8.125   6.723   6.667   6.132   6.758   7.333   7.268   6.891   6.485
   170.68    6.644   7.567   8.342   8.071   8.071   8.083   7.713   6.935   6.935   7.219   6.314   6.544   6.796   6.927   6.761
   150.00    7.320   7.770   7.577   7.723   7.574   7.058   6.691   7.222   6.024   7.099   6.023   6.183   6.528   6.635   6.615
   129.32    8.243   8.383   7.543   7.057   6.694   7.193   6.271   7.135   6.151   6.364   5.792   5.553   6.326   6.342   6.116
   108.64    8.272   8.307   7.106   7.149   6.090   7.519   6.866   6.329   6.194   6.212   5.495   6.098   6.414   5.746   5.552
    87.96    7.236   7.311   6.169   7.235   7.017   7.664   7.566   7.009   5.961   5.988   5.661   5.866   6.144   5.749   5.348
    67.29    6.856   6.721   7.879   7.220   8.153   8.095   7.386   6.977   6.765   6.142   5.390   5.462   5.813   5.720   5.307
    46.61    7.557   6.939   8.078   7.437   7.494   6.698   6.326   6.007   6.657   5.464   5.118   5.451   5.678   5.961   5.451
    25.93    6.717   7.493   7.224   8.091   7.424   7.206   5.870   5.346   5.978   5.489   5.589   6.028   5.844   5.269   5.514
     5.25    6.457   6.908   7.655   7.416   6.766   6.001   5.505   5.069   5.368   5.976   5.229   5.281   5.736   6.417   6.718

   Height   Standard deviation at grid points for the v component:
   294.75    5.348   5.348   5.348   5.348   5.348   5.348   5.348   5.348   5.348   5.348   5.348   5.348   5.348   5.348   5.348
   274.07    5.348   5.348   5.348   5.348   5.348   5.348   5.348   5.348   5.348   5.348   5.348   5.348   5.348   5.348   5.348
   253.39    5.348   5.348   5.348   5.348   5.348   5.348   5.348   5.348   5.348   5.348   5.348   5.348   5.348   5.348   5.348
   232.71    5.348   5.348   5.348   5.348   5.348   5.348   5.348   5.348   5.348   5.348   5.348   5.348   5.348   5.348   5.348
   212.04    5.348   5.348   5.348   5.348   5.348   5.348   5.348   5.348   5.348   5.348   5.348   5.348   5.348   5.348   5.348
   191.36    5.348   5.348   5.348   5.348   5.348   5.348   5.348   5.348   5.348   5.348   5.348   5.348   5.348   5.348   5.348
   170.68    5.348   5.348   5.348   5.348   5.348   5.348   5.348   5.348   5.348   5.348   5.348   5.348   5.348   5.348   5.348
   150.00    5.348   5.348   5.348   5.348   5.348   5.348   5.348   5.348   5.348   5.348   5.348   5.348   5.348   5.348   5.348
   129.32    5.348   5.348   5.348   5.348   5.348   5.348   5.348   5.348   5.348   5.348   5.348   5.348   5.348   5.348   5.348
   108.64    5.348   5.348   5.348   5.348   5.348   5.348   5.348   5.348   5.348   5.348   5.348   5.348   5.348   5.348   5.348
    87.96    5.348   5.348   5.348   5.348   5.348   5.348   5.348   5.348   5.348   5.348   5.348   5.348   5.348   5.348   5.348
    67.29    5.348   5.348   5.348   5.348   5.348   5.348   5.348   5.348   5.348   5.348   5.348   5.348   5.348   5.348   5.348
    46.61    5.348   5.348   5.348   5.348   5.348   5.348   5.348   5.348   5.348   5.348   5.348   5.348   5.348   5.348   5.348
    25.93    5.348   5.348   5.348   5.348   5.348   5.348   5.348   5.348   5.348   5.348   5.348   5.348   5.348   5.348   5.348
     5.25    5.348   5.348   5.348   5.348   5.348   5.348   5.348   5.348   5.348   5.348   5.348   5.348   5.348   5.348   5.348

   Height   Standard deviation at grid points for the w component:
   294.75    3.221   3.221   3.221   3.221   3.221   3.221   3.221   3.221   3.221   3.221   3.221   3.221   3.221   3.221   3.221
   274.07    3.221   3.221   3.221   3.221   3.221   3.221   3.221   3.221   3.221   3.221   3.221   3.221   3.221   3.221   3.221
   253.39    3.221   3.221   3.221   3.221   3.221   3.221   3.221   3.221   3.221   3.221   3.221   3.221   3.221   3.221   3.221
   232.71    3.221   3.221   3.221   3.221   3.221   3.221   3.221   3.221   3.221   3.221   3.221   3.221   3.221   3.221   3.221
   212.04    3.221   3.221   3.221   3.221   3.221   3.221   3.221   3.221   3.221   3.221   3.221   3.221   3.221   3.221   3.221
   191.36    3.221   3.221   3.221   3.221   3.221   3.221   3.221   3.221   3.221   3.221   3.221   3.221   3.221   3.221   3.221
   170.68    3.221   3.221   3.221   3.221   3.221   3.221   3.221   3.221   3.221   3.221   3.221   3.221   3.221   3.221   3.221
   150.00    3.221   3.221   3.221   3.221   3.221   3.221   3.221   3.221   3.221   3.221   3.221   3.221   3.221   3.221   3.221
   129.32    3.221   3.221   3.221   3.221   3.221   3.221   3.221   3.221   3.221   3.221   3.221   3.221   3.221   3.221   3.221
   108.64    3.221   3.221   3.221   3.221   3.221   3.221   3.221   3.221   3.221   3.221   3.221   3.221   3.221   3.221   3.221
    87.96    3.221   3.221   3.221   3.221   3.221   3.221   3.221   3.221   3.221   3.221   3.221   3.221   3.221   3.221   3.221
    67.29    3.221   3.221   3.221   3.221   3.221   3.221   3.221   3.221   3.221   3.221   3.221   3.221   3.221   3.221   3.221
    46.61    3.221   3.221   3.221   3.221   3.221   3.221   3.221   3.221   3.221   3.221   3.221   3.221   3.221   3.221   3.221
    25.93    3.221   3.221   3.221   3.221   3.221   3.221   3.221   3.221   3.221   3.221   3.221   3.221   3.221   3.221   3.221
     5.25    3.221   3.221   3.221   3.221   3.221   3.221   3.221   3.221   3.221   3.221   3.221   3.221   3.221   3.221   3.221

   Mean standard deviation across all grid points:
      u component:    6.662 m/s
      v component:    5.348 m/s
      w component:    3.221 m/s


U-component (X) statistics from the interpolated hub point:

   Mean =  65.0000 m/s
   TI   =  11.1106 %


Processing complete.  9.1806 CPU seconds used.
