Echo file for AeroDyn 15 primary input file: ./MA_deep_Vhub_9_Hs_9.5_Tp_13.2535_depth_62.7_seed_929617.AeroDyn.Inp
------- AERODYN v15.03.* INPUT FILE ------------------------------------------------                                                                                                                                                                                                                                                                                                                                                                                                                                                                                                                                                                                                                                                                                                                                                                                                                                                                                                                                                                            
IEA           MW            - Offshore Reference Turbine	                                                                                                                                                                                                                                                                                                                                                                                                                                                                                                                                                                                                                                                                                                                                                                                                                                                                                                                                                                                                       
======  General Options  ============================================================================                                                                                                                                                                                                                                                                                                                                                                                                                                                                                                                                                                                                                                                                                                                                                                                                                                                                                                                                                           
 True            = Echo                
 default         = DTAero              
 0               = WakeMod             
 1               = AFAeroMod           
 2               = TwrPotent           
 1               = TwrShadow           
 True            = TwrAero             
 False           = FrozenWake          
 False           = CavitCheck          
 False           = Buoyancy            
 False           = CompAA              
 AeroAcousticsIn = AA_InputFile        
======  Environmental Conditions  ===================================================================                                                                                                                                                                                                                                                                                                                                                                                                                                                                                                                                                                                                                                                                                                                                                                                                                                                                                                                                                           
 default         = AirDens             
 default         = KinVisc             
 default         = SpdSound            
 default         = Patm                
 default         = Pvap                
======  Blade-Element/Momentum Theory Options  ====================================================== [used only when WakeMod=1]                                                                                                                                                                                                                                                                                                                                                                                                                                                                                                                                                                                                                                                                                                                                                                                                                                                                                                                                
 2               = SkewMod             
 default         = SkewModFactor       
 True            = TipLoss             
 True            = HubLoss             
 True            = TanInd              
 True            = AIDrag              
 True            = TIDrag              
 default         = IndToler            
 500             = MaxIter             
======  Dynamic Blade-Element/Momentum Theory Options  ====================================================== [used only when WakeMod=1]                                                                                                                                                                                                                                                                                                                                                                                                                                                                                                                                                                                                                                                                                                                                                                                                                                                                                                                        
 2               = DBEMT_Mod           
 29.03           = tau1_const          
=====  OLAF -- cOnvecting LAgrangian Filaments (Free Vortex Wake) Theory Options  ================== [used only when WakeMod=3]                                                                                                                                                                                                                                                                                                                                                                                                                                                                                                                                                                                                                                                                                                                                                                                                                                                                                                                                 
 IEA-15-240-RWT_ = OLAFInputFileName   
======  Beddoes-Leishman Unsteady Airfoil Aerodynamics Options  ===================================== [used only when AFAeroMod=2]                                                                                                                                                                                                                                                                                                                                                                                                                                                                                                                                                                                                                                                                                                                                                                                                                                                                                                                              
 3               = UAMod               
 True            = FLookup             
 0               = UAStartRad          
 1               = UAEndRad            
======  Airfoil Information =========================================================================                                                                                                                                                                                                                                                                                                                                                                                                                                                                                                                                                                                                                                                                                                                                                                                                                                                                                                                                                           
 1               = AFTabMod            
 1               = InCol_Alfa          
 2               = InCol_Cl            
 3               = InCol_Cd            
 4               = InCol_Cm            
 0               = InCol_Cpmin         
 50              = NumAFfiles          
 IEA-15-240-RWT/ = AFNames             
 IEA-15-240-RWT/ =                     
 IEA-15-240-RWT/ =                     
 IEA-15-240-RWT/ =                     
 IEA-15-240-RWT/ =                     
 IEA-15-240-RWT/ =                     
 IEA-15-240-RWT/ =                     
 IEA-15-240-RWT/ =                     
 IEA-15-240-RWT/ =                     
 IEA-15-240-RWT/ =                     
 IEA-15-240-RWT/ =                     
 IEA-15-240-RWT/ =                     
 IEA-15-240-RWT/ =                     
 IEA-15-240-RWT/ =                     
 IEA-15-240-RWT/ =                     
 IEA-15-240-RWT/ =                     
 IEA-15-240-RWT/ =                     
 IEA-15-240-RWT/ =                     
 IEA-15-240-RWT/ =                     
 IEA-15-240-RWT/ =                     
 IEA-15-240-RWT/ =                     
 IEA-15-240-RWT/ =                     
 IEA-15-240-RWT/ =                     
 IEA-15-240-RWT/ =                     
 IEA-15-240-RWT/ =                     
 IEA-15-240-RWT/ =                     
 IEA-15-240-RWT/ =                     
 IEA-15-240-RWT/ =                     
 IEA-15-240-RWT/ =                     
 IEA-15-240-RWT/ =                     
 IEA-15-240-RWT/ =                     
 IEA-15-240-RWT/ =                     
 IEA-15-240-RWT/ =                     
 IEA-15-240-RWT/ =                     
 IEA-15-240-RWT/ =                     
 IEA-15-240-RWT/ =                     
 IEA-15-240-RWT/ =                     
 IEA-15-240-RWT/ =                     
 IEA-15-240-RWT/ =                     
 IEA-15-240-RWT/ =                     
 IEA-15-240-RWT/ =                     
 IEA-15-240-RWT/ =                     
 IEA-15-240-RWT/ =                     
 IEA-15-240-RWT/ =                     
 IEA-15-240-RWT/ =                     
 IEA-15-240-RWT/ =                     
 IEA-15-240-RWT/ =                     
 IEA-15-240-RWT/ =                     
 IEA-15-240-RWT/ =                     
 IEA-15-240-RWT/ =                     
======  Rotor/Blade Properties  =====================================================================                                                                                                                                                                                                                                                                                                                                                                                                                                                                                                                                                                                                                                                                                                                                                                                                                                                                                                                                                           
 True            = UseBlCm             
 IEA-15-240-RWT/ = ADBlFile(1)         
 IEA-15-240-RWT/ = ADBlFile(2)         
 IEA-15-240-RWT/ = ADBlFile(3)         
======  Hub Properties ============================================================================== [used only when Buoyancy=True]                                                                                                                                                                                                                                                                                                                                                                                                                                                                                                                                                                                                                                                                                                                                                                                                                                                                                                                            
 0.0             = VolHub              
 0.0             = HubCenBx            
======  Nacelle Properties ========================================================================== [used only when Buoyancy=True]                                                                                                                                                                                                                                                                                                                                                                                                                                                                                                                                                                                                                                                                                                                                                                                                                                                                                                                            
 0.0             = VolNac              
0, 0, 0 NacCenB - Position of nacelle center of buoyancy from yaw bearing in nacelle coordinates (m)
======  Tail fin Aerodynamics ========================================================================                                                                                                                                                                                                                                                                                                                                                                                                                                                                                                                                                                                                                                                                                                                                                                                                                                                                                                                                                          
 False           = TFinAero            
 unused          = TFinFile            
======  Tower Influence and Aerodynamics ============================================================= [used only when TwrPotent/=0, TwrShadow/=0, or TwrAero=True]                                                                                                                                                                                                                                                                                                                                                                                                                                                                                                                                                                                                                                                                                                                                                                                                                                                                                             
 10              = NumTwrNds           
Tower Table Header: TwrElev         TwrDiam         TwrCd           TwrTI           TwrCb	                                                                                                                                                                                                                                                                                                                                                                                                                                                                                                                                                                                                                                                                                                                                                                                                                                                                                                                                                                                          
Tower Table Header: (m)             (m)             (-)             (-)             (-)                                                                                                                                                                                                                                                                                                                                                                                                                                                                                                                                                                                                                                                                                                                                                                                                                                                                                                                                                                                             
20	             10	 5.00000000e-01	 1.00000000e-01	              0
28	             10	 5.00000000e-01	 1.00000000e-01	              0
41	 9.92600000e+00	 5.00000000e-01	 1.00000000e-01	              0
67	 8.83300000e+00	 5.00000000e-01	 1.00000000e-01	              0
80	 8.15100000e+00	 5.00000000e-01	 1.00000000e-01	              0
93	 7.39000000e+00	 5.00000000e-01	 1.00000000e-01	              0
106	 6.90900000e+00	 5.00000000e-01	 1.00000000e-01	              0
119	 6.74800000e+00	 5.00000000e-01	 1.00000000e-01	              0
132	 6.57200000e+00	 5.00000000e-01	 1.00000000e-01	              0
1.44386000e+02	 6.50000000e+00	 5.00000000e-01	 1.00000000e-01	              0
======  Outputs  ====================================================================================                                                                                                                                                                                                                                                                                                                                                                                                                                                                                                                                                                                                                                                                                                                                                                                                                                                                                                                                                           
 False           = SumPrint            
 0               = NBlOuts             
0             BlOutNd       - Blade nodes whose values will be output (-)
 0               = NTwOuts             
0             TwOutNd       - Tower nodes whose values will be output (-)
OutList The next line(s) contains a list of output parameters.  See OutListParameters.xlsx for a listing of available output channels, (-)                                                                                                                                                                                                                                                                                                                                                                                                                                                                                                                                                                                                                                                                                                                                                                                                                                                                                                                      
"RtFldFxh"	
"RtFldFyh"	
"RtFldFzh"	
"RtFldMxh"	
"RtFldMyh"	
"RtFldMzh"	
"RtVAvgxh"	
"RtFldCp"	
"RtFldCt"	
"RtArea"	
"RtSpeed"	
RtAeroFxh
RtAeroFyh
RtAeroFzh
RtAeroMxh
RtAeroMyh
RtAeroMzh
"RtTSR"	
END	
====== Outputs for all blade stations (same ending as above for B1N1.... =========================== [optional section]                                                                                                                                                                                                                                                                                                                                                                                                                                                                                                                                                                                                                                                                                                                                                                                                                                                                                                                                         
 0               = BldNd_BladesOut     
 All             = BldNd_BlOutNd       
OutList_Nodal The next line(s) contains a list of output parameters.  See OutListParameters.xlsx for a listing of available output channels, (-)                                                                                                                                                                                                                                                                                                                                                                                                                                                                                                                                                                                                                                                                                                                                                                                                                                                                                                                
END	



           50  NumBlNds       - Number of blade nodes used in the analysis (-)
    BlSpn        BlCrvAC        BlSwpAC        BlCrvAng       BlTwist        BlChord          BlAFID    BlCb    BlCenBn    BlCenBt

   0.0000   -0.0064   -0.0228    0.9291   15.5946    5.2000         1   0.0000    0.0000    0.0000
   2.3878    0.0324    0.0501    0.8707   15.5877    5.2088         2   0.0000    0.0000    0.0000
   4.7755    0.0662    0.0869    0.6377   15.4108    5.2379         3   0.0000    0.0000    0.0000
   7.1633    0.0855    0.0531    0.3623   14.9486    5.2933         4   0.0000    0.0000    0.0000
   9.5510    0.0964   -0.0283    0.2309   14.2585    5.3673         5   0.0000    0.0000    0.0000
  11.9388    0.1048   -0.1353    0.2333   13.3971    5.4521         6   0.0000    0.0000    0.0000
  14.3265    0.1159   -0.2434    0.3538   12.4220    5.5400         7   0.0000    0.0000    0.0000
  16.7143    0.1342   -0.3189    0.5253   11.3946    5.6218         8   0.0000    0.0000    0.0000
  19.1020    0.1596   -0.3470    0.5164   10.3710    5.6925         9   0.0000    0.0000    0.0000
  21.4898    0.1773   -0.3819    0.3195    9.4040    5.7426        10   0.0000    0.0000    0.0000
  23.8775    0.1863   -0.4163    0.1573    8.5515    5.7648        11   0.0000    0.0000    0.0000
  26.2653    0.1904   -0.4350    0.1228    7.8332    5.7561        12   0.0000    0.0000    0.0000
  28.6530    0.1965   -0.4193    0.1577    7.1914    5.7031        13   0.0000    0.0000    0.0000
  31.0408    0.2035   -0.3833    0.1406    6.5516    5.6047        14   0.0000    0.0000    0.0000
  33.4286    0.2082   -0.3521    0.0872    5.9340    5.4716        15   0.0000    0.0000    0.0000
  35.8163    0.2108   -0.3259    0.0401    5.3461    5.3228        16   0.0000    0.0000    0.0000
  38.2041    0.2116   -0.3029    0.0039    4.7963    5.1665        17   0.0000    0.0000    0.0000
  40.5918    0.2111   -0.2833   -0.0489    4.2966    5.0194        18   0.0000    0.0000    0.0000
  42.9796    0.2075   -0.2650   -0.1798    3.8470    4.8858        19   0.0000    0.0000    0.0000
  45.3673    0.1961   -0.2469   -0.4026    3.4453    4.7680        20   0.0000    0.0000    0.0000
  47.7551    0.1739   -0.2287   -0.6993    3.0769    4.6546        21   0.0000    0.0000    0.0000
  50.1428    0.1379   -0.2109   -1.0038    2.7336    4.5410        22   0.0000    0.0000    0.0000
  52.5306    0.0903   -0.1945   -1.2407    2.4122    4.4282        23   0.0000    0.0000    0.0000
  54.9183    0.0345   -0.1806   -1.4159    2.1117    4.3170        24   0.0000    0.0000    0.0000
  57.3061   -0.0277   -0.1687   -1.5314    1.8284    4.2079        25   0.0000    0.0000    0.0000
  59.6938   -0.0932   -0.1591   -1.6157    1.5588    4.1016        26   0.0000    0.0000    0.0000
  62.0816   -0.1624   -0.1520   -1.8037    1.3024    3.9987        27   0.0000    0.0000    0.0000
  64.4694   -0.2435   -0.1475   -2.1168    1.0644    3.8994        28   0.0000    0.0000    0.0000
  66.8571   -0.3388   -0.1443   -2.4608    0.8434    3.8032        29   0.0000    0.0000    0.0000
  69.2449   -0.4485   -0.1429   -2.7653    0.6366    3.7094        30   0.0000    0.0000    0.0000
  71.6326   -0.5692   -0.1431   -2.9961    0.4370    3.6171        31   0.0000    0.0000    0.0000
  74.0204   -0.6981   -0.1449   -3.1579    0.2397    3.5256        32   0.0000    0.0000    0.0000
  76.4081   -0.8322   -0.1477   -3.2578    0.0397    3.4341        33   0.0000    0.0000    0.0000
  78.7959   -0.9695   -0.1512   -3.3104   -0.1728    3.3419        34   0.0000    0.0000    0.0000
  81.1836   -1.1080   -0.1552   -3.4063   -0.4071    3.2487        35   0.0000    0.0000    0.0000
  83.5714   -1.2532   -0.1596   -3.5959   -0.6804    3.1561        36   0.0000    0.0000    0.0000
  85.9591   -1.4075   -0.1642   -3.7961   -0.9993    3.0646        37   0.0000    0.0000    0.0000
  88.3469   -1.5694   -0.1685   -3.9758   -1.3205    2.9730        38   0.0000    0.0000    0.0000
  90.7346   -1.7386   -0.1724   -4.1340   -1.6233    2.8807        39   0.0000    0.0000    0.0000
  93.1224   -1.9137   -0.1755   -4.2629   -1.8844    2.7870        40   0.0000    0.0000    0.0000
  95.5101   -2.0936   -0.1785   -4.3829   -2.0862    2.6910        41   0.0000    0.0000    0.0000
  97.8979   -2.2786   -0.1819   -4.5044   -2.1640    2.5920        42   0.0000    0.0000    0.0000
 100.2857   -2.4686   -0.1856   -4.6562   -2.1758    2.4893        43   0.0000    0.0000    0.0000
 102.6734   -2.6663   -0.1893   -4.8357   -2.1553    2.3839        44   0.0000    0.0000    0.0000
 105.0612   -2.8712   -0.1925   -5.0085   -2.1029    2.2759        45   0.0000    0.0000    0.0000
 107.4489   -3.0832   -0.1950   -5.1749   -2.0184    2.1655        46   0.0000    0.0000    0.0000
 109.8367   -3.3019   -0.1971   -5.3409   -1.8967    2.0526        47   0.0000    0.0000    0.0000
 112.2244   -3.5277   -0.1990   -5.4905   -1.7243    1.9378        48   0.0000    0.0000    0.0000
 114.6122   -3.7589   -0.2003   -5.6601   -1.5081    1.8197        49   0.0000    0.0000    0.0000
 116.9999   -3.9987   -0.0591   -5.7654   -1.2424    0.5000        50   0.0000    0.0000    0.0000



           50  NumBlNds       - Number of blade nodes used in the analysis (-)
    BlSpn        BlCrvAC        BlSwpAC        BlCrvAng       BlTwist        BlChord          BlAFID    BlCb    BlCenBn    BlCenBt

   0.0000   -0.0064   -0.0228    0.9291   15.5946    5.2000         1   0.0000    0.0000    0.0000
   2.3878    0.0324    0.0501    0.8707   15.5877    5.2088         2   0.0000    0.0000    0.0000
   4.7755    0.0662    0.0869    0.6377   15.4108    5.2379         3   0.0000    0.0000    0.0000
   7.1633    0.0855    0.0531    0.3623   14.9486    5.2933         4   0.0000    0.0000    0.0000
   9.5510    0.0964   -0.0283    0.2309   14.2585    5.3673         5   0.0000    0.0000    0.0000
  11.9388    0.1048   -0.1353    0.2333   13.3971    5.4521         6   0.0000    0.0000    0.0000
  14.3265    0.1159   -0.2434    0.3538   12.4220    5.5400         7   0.0000    0.0000    0.0000
  16.7143    0.1342   -0.3189    0.5253   11.3946    5.6218         8   0.0000    0.0000    0.0000
  19.1020    0.1596   -0.3470    0.5164   10.3710    5.6925         9   0.0000    0.0000    0.0000
  21.4898    0.1773   -0.3819    0.3195    9.4040    5.7426        10   0.0000    0.0000    0.0000
  23.8775    0.1863   -0.4163    0.1573    8.5515    5.7648        11   0.0000    0.0000    0.0000
  26.2653    0.1904   -0.4350    0.1228    7.8332    5.7561        12   0.0000    0.0000    0.0000
  28.6530    0.1965   -0.4193    0.1577    7.1914    5.7031        13   0.0000    0.0000    0.0000
  31.0408    0.2035   -0.3833    0.1406    6.5516    5.6047        14   0.0000    0.0000    0.0000
  33.4286    0.2082   -0.3521    0.0872    5.9340    5.4716        15   0.0000    0.0000    0.0000
  35.8163    0.2108   -0.3259    0.0401    5.3461    5.3228        16   0.0000    0.0000    0.0000
  38.2041    0.2116   -0.3029    0.0039    4.7963    5.1665        17   0.0000    0.0000    0.0000
  40.5918    0.2111   -0.2833   -0.0489    4.2966    5.0194        18   0.0000    0.0000    0.0000
  42.9796    0.2075   -0.2650   -0.1798    3.8470    4.8858        19   0.0000    0.0000    0.0000
  45.3673    0.1961   -0.2469   -0.4026    3.4453    4.7680        20   0.0000    0.0000    0.0000
  47.7551    0.1739   -0.2287   -0.6993    3.0769    4.6546        21   0.0000    0.0000    0.0000
  50.1428    0.1379   -0.2109   -1.0038    2.7336    4.5410        22   0.0000    0.0000    0.0000
  52.5306    0.0903   -0.1945   -1.2407    2.4122    4.4282        23   0.0000    0.0000    0.0000
  54.9183    0.0345   -0.1806   -1.4159    2.1117    4.3170        24   0.0000    0.0000    0.0000
  57.3061   -0.0277   -0.1687   -1.5314    1.8284    4.2079        25   0.0000    0.0000    0.0000
  59.6938   -0.0932   -0.1591   -1.6157    1.5588    4.1016        26   0.0000    0.0000    0.0000
  62.0816   -0.1624   -0.1520   -1.8037    1.3024    3.9987        27   0.0000    0.0000    0.0000
  64.4694   -0.2435   -0.1475   -2.1168    1.0644    3.8994        28   0.0000    0.0000    0.0000
  66.8571   -0.3388   -0.1443   -2.4608    0.8434    3.8032        29   0.0000    0.0000    0.0000
  69.2449   -0.4485   -0.1429   -2.7653    0.6366    3.7094        30   0.0000    0.0000    0.0000
  71.6326   -0.5692   -0.1431   -2.9961    0.4370    3.6171        31   0.0000    0.0000    0.0000
  74.0204   -0.6981   -0.1449   -3.1579    0.2397    3.5256        32   0.0000    0.0000    0.0000
  76.4081   -0.8322   -0.1477   -3.2578    0.0397    3.4341        33   0.0000    0.0000    0.0000
  78.7959   -0.9695   -0.1512   -3.3104   -0.1728    3.3419        34   0.0000    0.0000    0.0000
  81.1836   -1.1080   -0.1552   -3.4063   -0.4071    3.2487        35   0.0000    0.0000    0.0000
  83.5714   -1.2532   -0.1596   -3.5959   -0.6804    3.1561        36   0.0000    0.0000    0.0000
  85.9591   -1.4075   -0.1642   -3.7961   -0.9993    3.0646        37   0.0000    0.0000    0.0000
  88.3469   -1.5694   -0.1685   -3.9758   -1.3205    2.9730        38   0.0000    0.0000    0.0000
  90.7346   -1.7386   -0.1724   -4.1340   -1.6233    2.8807        39   0.0000    0.0000    0.0000
  93.1224   -1.9137   -0.1755   -4.2629   -1.8844    2.7870        40   0.0000    0.0000    0.0000
  95.5101   -2.0936   -0.1785   -4.3829   -2.0862    2.6910        41   0.0000    0.0000    0.0000
  97.8979   -2.2786   -0.1819   -4.5044   -2.1640    2.5920        42   0.0000    0.0000    0.0000
 100.2857   -2.4686   -0.1856   -4.6562   -2.1758    2.4893        43   0.0000    0.0000    0.0000
 102.6734   -2.6663   -0.1893   -4.8357   -2.1553    2.3839        44   0.0000    0.0000    0.0000
 105.0612   -2.8712   -0.1925   -5.0085   -2.1029    2.2759        45   0.0000    0.0000    0.0000
 107.4489   -3.0832   -0.1950   -5.1749   -2.0184    2.1655        46   0.0000    0.0000    0.0000
 109.8367   -3.3019   -0.1971   -5.3409   -1.8967    2.0526        47   0.0000    0.0000    0.0000
 112.2244   -3.5277   -0.1990   -5.4905   -1.7243    1.9378        48   0.0000    0.0000    0.0000
 114.6122   -3.7589   -0.2003   -5.6601   -1.5081    1.8197        49   0.0000    0.0000    0.0000
 116.9999   -3.9987   -0.0591   -5.7654   -1.2424    0.5000        50   0.0000    0.0000    0.0000



           50  NumBlNds       - Number of blade nodes used in the analysis (-)
    BlSpn        BlCrvAC        BlSwpAC        BlCrvAng       BlTwist        BlChord          BlAFID    BlCb    BlCenBn    BlCenBt

   0.0000   -0.0064   -0.0228    0.9291   15.5946    5.2000         1   0.0000    0.0000    0.0000
   2.3878    0.0324    0.0501    0.8707   15.5877    5.2088         2   0.0000    0.0000    0.0000
   4.7755    0.0662    0.0869    0.6377   15.4108    5.2379         3   0.0000    0.0000    0.0000
   7.1633    0.0855    0.0531    0.3623   14.9486    5.2933         4   0.0000    0.0000    0.0000
   9.5510    0.0964   -0.0283    0.2309   14.2585    5.3673         5   0.0000    0.0000    0.0000
  11.9388    0.1048   -0.1353    0.2333   13.3971    5.4521         6   0.0000    0.0000    0.0000
  14.3265    0.1159   -0.2434    0.3538   12.4220    5.5400         7   0.0000    0.0000    0.0000
  16.7143    0.1342   -0.3189    0.5253   11.3946    5.6218         8   0.0000    0.0000    0.0000
  19.1020    0.1596   -0.3470    0.5164   10.3710    5.6925         9   0.0000    0.0000    0.0000
  21.4898    0.1773   -0.3819    0.3195    9.4040    5.7426        10   0.0000    0.0000    0.0000
  23.8775    0.1863   -0.4163    0.1573    8.5515    5.7648        11   0.0000    0.0000    0.0000
  26.2653    0.1904   -0.4350    0.1228    7.8332    5.7561        12   0.0000    0.0000    0.0000
  28.6530    0.1965   -0.4193    0.1577    7.1914    5.7031        13   0.0000    0.0000    0.0000
  31.0408    0.2035   -0.3833    0.1406    6.5516    5.6047        14   0.0000    0.0000    0.0000
  33.4286    0.2082   -0.3521    0.0872    5.9340    5.4716        15   0.0000    0.0000    0.0000
  35.8163    0.2108   -0.3259    0.0401    5.3461    5.3228        16   0.0000    0.0000    0.0000
  38.2041    0.2116   -0.3029    0.0039    4.7963    5.1665        17   0.0000    0.0000    0.0000
  40.5918    0.2111   -0.2833   -0.0489    4.2966    5.0194        18   0.0000    0.0000    0.0000
  42.9796    0.2075   -0.2650   -0.1798    3.8470    4.8858        19   0.0000    0.0000    0.0000
  45.3673    0.1961   -0.2469   -0.4026    3.4453    4.7680        20   0.0000    0.0000    0.0000
  47.7551    0.1739   -0.2287   -0.6993    3.0769    4.6546        21   0.0000    0.0000    0.0000
  50.1428    0.1379   -0.2109   -1.0038    2.7336    4.5410        22   0.0000    0.0000    0.0000
  52.5306    0.0903   -0.1945   -1.2407    2.4122    4.4282        23   0.0000    0.0000    0.0000
  54.9183    0.0345   -0.1806   -1.4159    2.1117    4.3170        24   0.0000    0.0000    0.0000
  57.3061   -0.0277   -0.1687   -1.5314    1.8284    4.2079        25   0.0000    0.0000    0.0000
  59.6938   -0.0932   -0.1591   -1.6157    1.5588    4.1016        26   0.0000    0.0000    0.0000
  62.0816   -0.1624   -0.1520   -1.8037    1.3024    3.9987        27   0.0000    0.0000    0.0000
  64.4694   -0.2435   -0.1475   -2.1168    1.0644    3.8994        28   0.0000    0.0000    0.0000
  66.8571   -0.3388   -0.1443   -2.4608    0.8434    3.8032        29   0.0000    0.0000    0.0000
  69.2449   -0.4485   -0.1429   -2.7653    0.6366    3.7094        30   0.0000    0.0000    0.0000
  71.6326   -0.5692   -0.1431   -2.9961    0.4370    3.6171        31   0.0000    0.0000    0.0000
  74.0204   -0.6981   -0.1449   -3.1579    0.2397    3.5256        32   0.0000    0.0000    0.0000
  76.4081   -0.8322   -0.1477   -3.2578    0.0397    3.4341        33   0.0000    0.0000    0.0000
  78.7959   -0.9695   -0.1512   -3.3104   -0.1728    3.3419        34   0.0000    0.0000    0.0000
  81.1836   -1.1080   -0.1552   -3.4063   -0.4071    3.2487        35   0.0000    0.0000    0.0000
  83.5714   -1.2532   -0.1596   -3.5959   -0.6804    3.1561        36   0.0000    0.0000    0.0000
  85.9591   -1.4075   -0.1642   -3.7961   -0.9993    3.0646        37   0.0000    0.0000    0.0000
  88.3469   -1.5694   -0.1685   -3.9758   -1.3205    2.9730        38   0.0000    0.0000    0.0000
  90.7346   -1.7386   -0.1724   -4.1340   -1.6233    2.8807        39   0.0000    0.0000    0.0000
  93.1224   -1.9137   -0.1755   -4.2629   -1.8844    2.7870        40   0.0000    0.0000    0.0000
  95.5101   -2.0936   -0.1785   -4.3829   -2.0862    2.6910        41   0.0000    0.0000    0.0000
  97.8979   -2.2786   -0.1819   -4.5044   -2.1640    2.5920        42   0.0000    0.0000    0.0000
 100.2857   -2.4686   -0.1856   -4.6562   -2.1758    2.4893        43   0.0000    0.0000    0.0000
 102.6734   -2.6663   -0.1893   -4.8357   -2.1553    2.3839        44   0.0000    0.0000    0.0000
 105.0612   -2.8712   -0.1925   -5.0085   -2.1029    2.2759        45   0.0000    0.0000    0.0000
 107.4489   -3.0832   -0.1950   -5.1749   -2.0184    2.1655        46   0.0000    0.0000    0.0000
 109.8367   -3.3019   -0.1971   -5.3409   -1.8967    2.0526        47   0.0000    0.0000    0.0000
 112.2244   -3.5277   -0.1990   -5.4905   -1.7243    1.9378        48   0.0000    0.0000    0.0000
 114.6122   -3.7589   -0.2003   -5.6601   -1.5081    1.8197        49   0.0000    0.0000    0.0000
 116.9999   -3.9987   -0.0591   -5.7654   -1.2424    0.5000        50   0.0000    0.0000    0.0000
--
Contents of "./IEA-15-240-RWT/Airfoils/IEA-15-240-RWT_AeroDyn15_Polar_00.dat":
 DEFAULT         = InterpOrd           
 1               = NonDimArea          
 201             = NumCoords           
0.500000       0
1.00000000000000e+00 -5.22829392626822e-16
9.99429683992583e-01 -2.22597407115582e-02
9.98063017832965e-01 -4.44580348954677e-02
9.95573914266674e-01 -6.65618134473914e-02
9.92086309749560e-01 -8.85198205325816e-02
9.87686148675057e-01 -1.10275272231260e-01
9.82330525170640e-01 -1.31784370919739e-01
9.76011908335692e-01 -1.53006617635088e-01
9.68787467298381e-01 -1.73886802805474e-01
9.60674860259240e-01 -1.94379348489358e-01
9.51675358763677e-01 -2.14449685889897e-01
9.41827652746244e-01 -2.34058378730561e-01
9.31175295355131e-01 -2.53152975865307e-01
9.19730397431178e-01 -2.71705871524177e-01
9.07524559194720e-01 -2.89691038427374e-01
8.94610408070308e-01 -3.07057540313714e-01
8.81009696499435e-01 -3.23779496057417e-01
8.66747905197194e-01 -3.39839087916958e-01
8.51890258171205e-01 -3.55200475411866e-01
8.36469462621421e-01 -3.69843137468982e-01
8.20513485943698e-01 -3.83761493954297e-01
8.04073832217581e-01 -3.96914898117900e-01
7.87191529885653e-01 -4.09289340064311e-01
7.69897919101553e-01 -4.20894001702843e-01
7.52252341235159e-01 -4.31703640475796e-01
7.34291349178558e-01 -4.41704116420428e-01
7.16044924955764e-01 -4.50916295010545e-01
6.97571640033109e-01 -4.59311192391506e-01
6.78906186433687e-01 -4.66891833699312e-01
6.60080312620540e-01 -4.73693126862085e-01
6.41147517137212e-01 -4.79664129290007e-01
6.22137650968852e-01 -4.84843433471521e-01
6.03087998194415e-01 -4.89268924532069e-01
5.84045042118975e-01 -4.92877104400900e-01
5.65030897687003e-01 -4.95771017901343e-01
5.46088602779599e-01 -4.97906772720028e-01
5.27248673916899e-01 -4.99205230965369e-01
5.08535950506088e-01 -4.99900147123151e-01
4.89992355470388e-01 -4.99865122336167e-01
4.71632114506831e-01 -4.99152990523336e-01
4.53492503744348e-01 -4.97865574847876e-01
4.35593302897673e-01 -4.95849221396458e-01
4.17956065616942e-01 -4.93220204257438e-01
4.00609748442576e-01 -4.90034017714886e-01
3.83560931606009e-01 -4.86240654381211e-01
3.66843215733716e-01 -4.81953122075711e-01
3.50457316320503e-01 -4.77107036591688e-01
3.34434484008630e-01 -4.71801617147634e-01
3.18774100329315e-01 -4.65997503105357e-01
3.03499623121295e-01 -4.59771833639973e-01
2.88611293565648e-01 -4.53111012774598e-01
2.74124386665666e-01 -4.46071472676040e-01
2.60041455523719e-01 -4.38653996586565e-01
2.46374872015918e-01 -4.30897288076141e-01
2.33123443938833e-01 -4.22812892154316e-01
2.20293777810423e-01 -4.14442160590301e-01
2.07883282965331e-01 -4.05790731420267e-01
1.95902956391646e-01 -3.96897110059902e-01
1.84341253066628e-01 -3.87763028932806e-01
1.73213930954161e-01 -3.78432781857511e-01
1.62499176129638e-01 -3.68901685535316e-01
1.52214602777259e-01 -3.59220819204806e-01
1.42331759398971e-01 -3.49381794975500e-01
1.32872111539190e-01 -3.39428678290192e-01
1.23806439629760e-01 -3.29359452404754e-01
1.15147623386077e-01 -3.19202364510091e-01
1.06887208802748e-01 -3.08971834769009e-01
9.90071115215634e-02 -2.98675440643128e-01
9.15234043853440e-02 -2.88346537239591e-01
8.43970428172224e-02 -2.77979120522002e-01
7.76464790199521e-02 -2.67604205770439e-01
7.12479082120208e-02 -2.57229212452774e-01
6.51878662973747e-02 -2.46861090082763e-01
5.94874721274203e-02 -2.36524433012697e-01
5.41002464180900e-02 -2.26213901273871e-01
4.90378786701877e-02 -2.15949074862572e-01
4.43003497573340e-02 -2.05745246473815e-01
3.98423597346805e-02 -1.95597654428208e-01
3.56899752436130e-02 -1.85525503303304e-01
3.18292350050659e-02 -1.75535988753057e-01
2.82200072057900e-02 -1.65626936732462e-01
2.48925247792698e-02 -1.55815221490219e-01
2.18286683030035e-02 -1.46105621815703e-01
1.89846947131332e-02 -1.36495337998243e-01
1.63921917020335e-02 -1.26998300581103e-01
1.40446346341990e-02 -1.17620770590061e-01
1.18798249846349e-02 -1.08356847039080e-01
9.93094518736226e-03 -9.92166214620377e-02
8.21940795734749e-03 -9.02084101294225e-02
6.65838622137879e-03 -8.13254351098410e-02
5.26774192850643e-03 -7.25722234042700e-02
4.09515753852961e-03 -6.39564017315716e-02
3.09878859713642e-03 -5.54780130211000e-02
2.19660773551101e-03 -4.71320046999757e-02
1.46264176301869e-03 -3.89244052604170e-02
9.64484608297922e-04 -3.08606101713947e-02
5.99373867982851e-04 -2.29362359459691e-02
2.90086645599082e-04 -1.51487658773967e-02
7.80707788302466e-05 -7.50222207649338e-03
0.00000000000000e+00  0.00000000000000e+00
7.80412061165972e-05  7.50073622069008e-03
2.89878724192004e-04  1.51427584868874e-02
5.98775316682048e-04  2.29225845614194e-02
9.63326351634835e-04  3.08361193977748e-02
1.45966821282819e-03  3.88857489711792e-02
2.19097636449990e-03  4.70758159906831e-02
3.08997841959778e-03  5.54008881281673e-02
4.08271112470316e-03  6.38548864368973e-02
5.24853124383664e-03  7.24426344646886e-02
6.63128223001261e-03  8.11642365969105e-02
8.18368429859057e-03  9.00120990085718e-02
9.88361416849065e-03  9.89814202866229e-02
1.18176401547236e-02  1.08079023747493e-01
1.39661993216830e-02  1.17296891553284e-01
1.62951420791042e-02  1.26624818507885e-01
1.88631937781153e-02  1.36068234819796e-01
2.16807137532775e-02  1.45621741073938e-01
2.47159162958630e-02  1.55271505652796e-01
2.80064400105864e-02  1.65019126539152e-01
3.15762558914965e-02  1.74861450420233e-01
3.53948396168776e-02  1.84781748500356e-01
3.94949825480075e-02  1.94780451150684e-01
4.38979282781582e-02  2.04852826049369e-01
4.85758075737765e-02  2.14979335736815e-01
5.35679916138118e-02  2.25163248876704e-01
5.88818211488708e-02  2.35392575398327e-01
6.45001629027313e-02  2.45645861854958e-01
7.04692046391145e-02  2.55928809695428e-01
7.67740309924709e-02  2.66220088966340e-01
8.34162127168367e-02  2.76507393790272e-01
9.04290195190656e-02  2.86789711779561e-01
9.77906533229447e-02  2.97034361595414e-01
1.05536187198748e-01  3.07245770330167e-01
1.13658760041779e-01  3.17397798197942e-01
1.22161483318940e-01  3.27472514118938e-01
1.31067498602735e-01  3.37467155091884e-01
1.40354649921884e-01  3.47346400530541e-01
1.50055110786138e-01  3.57117293892256e-01
1.60148962661562e-01  3.66736829146265e-01
1.70658187899640e-01  3.76209016178366e-01
1.81574957422924e-01  3.85495420277773e-01
1.92907571409635e-01  3.94583247665971e-01
2.04657634577812e-01  4.03452252859203e-01
2.16817353069424e-01  4.12073654675103e-01
2.29396483963478e-01  4.20441260405522e-01
2.42377800694080e-01  4.28515729124923e-01
2.55773624268338e-01  4.36297014051329e-01
2.69566785632899e-01  4.43730784236712e-01
2.83765797226135e-01  4.50825718973627e-01
2.98347982887804e-01  4.57529313046837e-01
3.13318978785268e-01  4.63848274999177e-01
3.28658461892810e-01  4.69727033948469e-01
3.44364941645546e-01  4.75166089488011e-01
3.60419773725681e-01  4.80124895665173e-01
3.76811233766957e-01  4.84580156948735e-01
3.93525251020729e-01  4.88538023799543e-01
4.10538642553571e-01  4.91916286871980e-01
4.27843232490823e-01  4.94793689772683e-01
4.45406663468198e-01  4.97001865465950e-01
4.63222254103030e-01  4.98694527925836e-01
4.81251545655716e-01  4.99575957461702e-01
4.99481026671737e-01  4.99999595958852e-01
5.17879583085697e-01  4.99609899963933e-01
5.36417631367010e-01  4.98719254404591e-01
5.55075704909560e-01  4.96947095459801e-01
5.73808427242608e-01  4.94546807361687e-01
5.92596731105059e-01  4.91342495584800e-01
6.11401377553511e-01  4.87427713678203e-01
6.30186430605241e-01  4.82763790791591e-01
6.48926781663159e-01  4.77299436027394e-01
6.67570206424973e-01  4.71090906382616e-01
6.86088429590952e-01  4.64085564448580e-01
7.04445389043917e-01  4.56285153530384e-01
7.22592093722966e-01  4.47721154132331e-01
7.40501800453524e-01  4.38357128523673e-01
7.58125457122835e-01  4.28212344239085e-01
7.75421014376153e-01  4.17302884275069e-01
7.92362373587600e-01  4.05613976111210e-01
8.08894546151696e-01  3.93173546991026e-01
8.24974633014891e-01  3.79990391949436e-01
8.40576952273409e-01  3.66062639074102e-01
8.55652758808818e-01  3.51433146523418e-01
8.70162898882712e-01  3.36117863695803e-01
8.84085033071272e-01  3.20125614835584e-01
8.97361214262371e-01  3.03490505958309e-01
9.09954680076662e-01  2.86240968660934e-01
9.21851471402547e-01  2.68396507929684e-01
9.33012836658427e-01  2.50001405518451e-01
9.43389278969050e-01  2.31088842332578e-01
9.52973153850559e-01  2.11684808241657e-01
9.61743130827061e-01  1.91832340326070e-01
9.69640690675464e-01  1.71577158818629e-01
9.76664215898664e-01  1.50951670528481e-01
9.82815077112014e-01  1.29995621032034e-01
9.88028440045103e-01  1.08765299158177e-01
9.92304836603751e-01  8.72999337504368e-02
9.95693518775914e-01  6.56397719044068e-02
9.98120489340015e-01  4.38394581414280e-02
9.99443037908705e-01  2.19496513968833e-02
1.00000000000000e+00 -5.26828685157063e-16
 AF00_BL.txt     = BL_file             
 1               = NumTabs             
 3.000000        = Re                  
 0               = Ctrl                
 False           = InclUAdata          
 200             = NumAlf              
-1.80000000000000e+02  1.00000000000000e-04  3.50000000000000e-01 -1.00000000000000e-04
-1.77000000000000e+02  9.99999999999890e-05  3.50000000000000e-01 -1.00000000000003e-04
-1.74000000000000e+02  9.99999999999890e-05  3.50000000000000e-01 -9.99999999999890e-05
-1.71000000000000e+02  9.99999999999890e-05  3.50000000000000e-01 -9.99999999999890e-05
-1.68000000000000e+02  9.99999999999890e-05  3.50000000000000e-01 -9.99999999999890e-05
-1.65000000000000e+02  9.99999999999890e-05  3.50000000000000e-01 -9.99999999999890e-05
-1.62000000000000e+02  9.99999999999890e-05  3.50000000000000e-01 -9.99999999999890e-05
-1.59000000000000e+02  9.99999999999890e-05  3.50000000000000e-01 -9.99999999999890e-05
-1.56000000000000e+02  9.99999999999890e-05  3.50000000000000e-01 -9.99999999999890e-05
-1.53000000000000e+02  9.99999999999890e-05  3.50000000000000e-01 -9.99999999999890e-05
-1.50000000000000e+02  1.00000000000100e-04  3.50000000000000e-01 -9.99999999999890e-05
-1.47000000000000e+02  9.99999999999890e-05  3.50000000000000e-01 -9.99999999999890e-05
-1.44000000000000e+02  9.99999999999890e-05  3.50000000000000e-01 -9.99999999999890e-05
-1.41000000000000e+02  9.99999999999890e-05  3.50000000000000e-01 -9.99999999999890e-05
-1.38000000000000e+02  9.99999999999890e-05  3.50000000000000e-01 -9.99999999999890e-05
-1.35000000000000e+02  9.99999999999890e-05  3.50000000000000e-01 -9.99999999999890e-05
-1.32000000000000e+02  9.99999999999890e-05  3.50000000000000e-01 -9.99999999999890e-05
-1.29000000000000e+02  9.99999999999890e-05  3.50000000000000e-01 -9.99999999999890e-05
-1.26000000000000e+02  9.99999999999890e-05  3.50000000000000e-01 -9.99999999999890e-05
-1.23000000000000e+02  9.99999999999890e-05  3.50000000000000e-01 -9.99999999999890e-05
-1.20000000000000e+02  9.99999999999890e-05  3.50000000000000e-01 -9.99999999999890e-05
-1.17000000000000e+02  9.99999999999890e-05  3.50000000000000e-01 -9.99999999999890e-05
-1.14000000000000e+02  9.99999999999890e-05  3.50000000000000e-01 -9.99999999999890e-05
-1.11000000000000e+02  9.99999999999890e-05  3.50000000000000e-01 -9.99999999999890e-05
-1.08000000000000e+02  9.99999999999890e-05  3.50000000000000e-01 -9.99999999999890e-05
-1.05000000000000e+02  9.99999999999890e-05  3.50000000000000e-01 -9.99999999999890e-05
-1.02000000000000e+02  9.99999999999890e-05  3.50000000000000e-01 -9.99999999999890e-05
-9.90000000000000e+01  9.99999999999890e-05  3.50000000000000e-01 -9.99999999999890e-05
-9.60000000000000e+01  9.99999999999959e-05  3.50000000000000e-01 -9.99999999999890e-05
-9.30000000000000e+01  1.00000000000003e-04  3.50000000000000e-01 -9.99999999999890e-05
-9.00000000000000e+01  1.00000000000000e-04  3.50000000000000e-01 -9.99999999999890e-05
-8.70000000000000e+01  1.00000000000003e-04  3.50000000000000e-01 -9.99999999999890e-05
-8.40000000000000e+01  1.00000000000010e-04  3.50000000000000e-01 -9.99999999999890e-05
-8.10000000000000e+01  9.99999999999890e-05  3.50000000000000e-01 -9.99999999999890e-05
-7.80000000000000e+01  9.99999999999890e-05  3.50000000000000e-01 -9.99999999999890e-05
-7.50000000000000e+01  9.99999999999890e-05  3.50000000000000e-01 -9.99999999999890e-05
-7.20000000000000e+01  9.99999999999890e-05  3.50000000000000e-01 -9.99999999999890e-05
-6.90000000000000e+01  9.99999999999890e-05  3.50000000000000e-01 -9.99999999999890e-05
-6.60000000000000e+01  9.99999999999890e-05  3.50000000000000e-01 -9.99999999999890e-05
-6.30000000000000e+01  9.99999999999890e-05  3.50000000000000e-01 -9.99999999999890e-05
-6.00000000000000e+01  9.99999999999890e-05  3.50000000000000e-01 -9.99999999999890e-05
-5.70000000000000e+01  9.99999999999890e-05  3.50000000000000e-01 -1.00000000000003e-04
-5.40000000000000e+01  9.99999999999890e-05  3.50000000000000e-01 -1.00000000000003e-04
-5.10000000000000e+01  9.99999999999890e-05  3.50000000000000e-01 -1.00000000000003e-04
-4.80000000000000e+01  9.99999999999890e-05  3.50000000000000e-01 -1.00000000000003e-04
-4.50000000000000e+01  9.99999999999890e-05  3.50000000000000e-01 -1.00000000000003e-04
-4.20000000000000e+01  9.99999999999890e-05  3.50000000000000e-01 -1.00000000000003e-04
-3.90000000000000e+01  9.99999999999890e-05  3.50000000000000e-01 -1.00000000000003e-04
-3.60000000000000e+01  9.99999999999890e-05  3.50000000000000e-01 -1.00000000000003e-04
-3.30000000000000e+01  9.99999999999890e-05  3.50000000000000e-01 -1.00000000000003e-04
-3.00000000000000e+01  9.99999999999890e-05  3.50000000000000e-01 -1.00000000000003e-04
-2.93939393939394e+01  9.99999999999890e-05  3.50000000000000e-01 -1.00000000000003e-04
-2.87878787878788e+01  9.99999999999890e-05  3.50000000000000e-01 -1.00000000000003e-04
-2.81818181818182e+01  9.99999999999890e-05  3.50000000000000e-01 -1.00000000000003e-04
-2.75757575757576e+01  9.99999999999890e-05  3.50000000000000e-01 -1.00000000000003e-04
-2.69696969696970e+01  9.99999999999890e-05  3.50000000000000e-01 -1.00000000000003e-04
-2.63636363636364e+01  9.99999999999890e-05  3.50000000000000e-01 -9.99999999999994e-05
-2.57575757575758e+01  9.99999999999890e-05  3.50000000000000e-01 -9.99999999999994e-05
-2.51515151515151e+01  9.99999999999890e-05  3.50000000000000e-01 -9.99999999999994e-05
-2.45454545454545e+01  9.99999999999890e-05  3.50000000000000e-01 -9.99999999999994e-05
-2.39393939393939e+01  9.99999999999890e-05  3.50000000000000e-01 -9.99999999999994e-05
-2.33333333333333e+01  9.99999999999890e-05  3.50000000000000e-01 -9.99999999999994e-05
-2.27272727272727e+01  1.00000000000100e-04  3.50000000000000e-01 -9.99999999999994e-05
-2.21212121212121e+01  9.99999999999890e-05  3.50000000000000e-01 -1.00000000000000e-04
-2.15151515151515e+01  9.99999999999890e-05  3.50000000000000e-01 -9.99999999999998e-05
-2.09090909090909e+01  9.99999999999890e-05  3.50000000000000e-01 -1.00000000000000e-04
-2.03030303030303e+01  9.99999999999890e-05  3.50000000000000e-01 -1.00000000000000e-04
-1.96969696969697e+01  9.99999999999890e-05  3.50000000000000e-01 -9.99999999999994e-05
-1.90909090909091e+01  9.99999999999890e-05  3.50000000000000e-01 -9.99999999999994e-05
-1.84848484848485e+01  9.99999999999890e-05  3.50000000000000e-01 -9.99999999999994e-05
-1.78787878787879e+01  9.99999999998780e-05  3.50000000000000e-01 -9.99999999999994e-05
-1.72727272727273e+01  9.99999999999890e-05  3.50000000000000e-01 -9.99999999999994e-05
-1.66666666666667e+01  9.99999999999890e-05  3.50000000000000e-01 -9.99999999999994e-05
-1.60606060606061e+01  9.99999999999890e-05  3.50000000000000e-01 -9.99999999999994e-05
-1.54545454545455e+01  1.00000000000100e-04  3.50000000000000e-01 -9.99999999999994e-05
-1.48484848484848e+01  9.99999999999890e-05  3.50000000000000e-01 -9.99999999999994e-05
-1.42424242424242e+01  9.99999999999890e-05  3.50000000000000e-01 -9.99999999999994e-05
-1.36363636363636e+01  9.99999999999890e-05  3.50000000000000e-01 -9.99999999999994e-05
-1.30303030303030e+01  9.99999999999890e-05  3.50000000000000e-01 -9.99999999999994e-05
-1.24242424242424e+01  9.99999999999890e-05  3.50000000000000e-01 -9.99999999999994e-05
-1.18181818181818e+01  9.99999999999890e-05  3.50000000000000e-01 -9.99999999999994e-05
-1.12121212121212e+01  9.99999999999890e-05  3.50000000000000e-01 -9.99999999999994e-05
-1.06060606060606e+01  9.99999999999890e-05  3.50000000000000e-01 -9.99999999999994e-05
-1.00000000000000e+01  9.99999999999890e-05  3.50000000000000e-01 -9.99999999999994e-05
-9.39393939393939e+00  9.99999999999890e-05  3.50000000000000e-01 -9.99999999999994e-05
-8.78787878787879e+00  9.99999999999890e-05  3.50000000000000e-01 -9.99999999999994e-05
-8.18181818181818e+00  9.99999999999890e-05  3.50000000000000e-01 -1.00000000000003e-04
-7.57575757575758e+00  9.99999999999890e-05  3.50000000000000e-01 -1.00000000000003e-04
-6.96969696969697e+00  9.99999999999890e-05  3.50000000000000e-01 -1.00000000000003e-04
-6.36363636363636e+00  9.99999999999890e-05  3.50000000000000e-01 -1.00000000000003e-04
-5.75757575757576e+00  9.99999999999890e-05  3.50000000000000e-01 -1.00000000000003e-04
-5.15151515151515e+00  9.99999999999890e-05  3.50000000000000e-01 -1.00000000000003e-04
-4.54545454545454e+00  1.00000000000003e-04  3.50000000000000e-01 -1.00000000000003e-04
-3.93939393939394e+00  1.00000000000003e-04  3.50000000000000e-01 -1.00000000000003e-04
-3.33333333333333e+00  9.99999999999994e-05  3.50000000000000e-01 -1.00000000000003e-04
-2.72727272727273e+00  1.00000000000003e-04  3.50000000000000e-01 -1.00000000000003e-04
-2.12121212121212e+00  9.99999999999890e-05  3.50000000000000e-01 -1.00000000000017e-04
-1.51515151515152e+00  9.99999999999612e-05  3.50000000000000e-01 -1.00000000000010e-04
-9.09090909090912e-01  9.99999999999890e-05  3.50000000000000e-01 -1.00000000000003e-04
-3.03030303030302e-01  9.99999999999890e-05  3.50000000000000e-01 -1.00000000000003e-04
3.03030303030302e-01  9.99999999999890e-05  3.50000000000000e-01 -1.00000000000003e-04
9.09090909090912e-01  9.99999999999890e-05  3.50000000000000e-01 -1.00000000000003e-04
1.51515151515152e+00  9.99999999999890e-05  3.50000000000000e-01 -1.00000000000003e-04
2.12121212121212e+00  9.99999999999890e-05  3.50000000000000e-01 -1.00000000000003e-04
2.72727272727273e+00  9.99999999999890e-05  3.50000000000000e-01 -1.00000000000003e-04
3.33333333333333e+00  9.99999999999890e-05  3.50000000000000e-01 -1.00000000000003e-04
3.93939393939394e+00  9.99999999999890e-05  3.50000000000000e-01 -1.00000000000003e-04
4.54545454545455e+00  9.99999999999890e-05  3.50000000000000e-01 -1.00000000000003e-04
5.15151515151515e+00  9.99999999999890e-05  3.50000000000000e-01 -1.00000000000003e-04
5.75757575757576e+00  9.99999999999890e-05  3.50000000000000e-01 -1.00000000000003e-04
6.36363636363637e+00  9.99999999999890e-05  3.50000000000000e-01 -1.00000000000003e-04
6.96969696969697e+00  9.99999999999890e-05  3.50000000000000e-01 -1.00000000000003e-04
7.57575757575757e+00  9.99999999999890e-05  3.50000000000000e-01 -9.99999999999890e-05
8.18181818181818e+00  9.99999999999890e-05  3.50000000000000e-01 -9.99999999999890e-05
8.78787878787879e+00  9.99999999999890e-05  3.50000000000000e-01 -9.99999999999890e-05
9.39393939393939e+00  9.99999999999890e-05  3.50000000000000e-01 -9.99999999999890e-05
1.00000000000000e+01  9.99999999999890e-05  3.50000000000000e-01 -9.99999999999890e-05
1.06060606060606e+01  9.99999999999890e-05  3.50000000000000e-01 -9.99999999999890e-05
1.12121212121212e+01  9.99999999999890e-05  3.50000000000000e-01 -1.00000000000003e-04
1.18181818181818e+01  9.99999999999890e-05  3.50000000000000e-01 -1.00000000000003e-04
1.24242424242424e+01  9.99999999999890e-05  3.50000000000000e-01 -1.00000000000003e-04
1.30303030303030e+01  9.99999999999890e-05  3.50000000000000e-01 -1.00000000000003e-04
1.36363636363636e+01  9.99999999999890e-05  3.50000000000000e-01 -1.00000000000003e-04
1.42424242424242e+01  9.99999999999890e-05  3.50000000000000e-01 -1.00000000000003e-04
1.48484848484848e+01  9.99999999997669e-05  3.50000000000000e-01 -1.00000000000003e-04
1.54545454545455e+01  1.00000000000211e-04  3.50000000000000e-01 -1.00000000000003e-04
1.60606060606061e+01  9.99999999997669e-05  3.50000000000000e-01 -1.00000000000003e-04
1.66666666666667e+01  9.99999999999890e-05  3.50000000000000e-01 -1.00000000000003e-04
1.72727272727273e+01  9.99999999999890e-05  3.50000000000000e-01 -1.00000000000003e-04
1.78787878787879e+01  9.99999999999890e-05  3.50000000000000e-01 -1.00000000000003e-04
1.84848484848485e+01  9.99999999997669e-05  3.50000000000000e-01 -1.00000000000003e-04
1.90909090909091e+01  9.99999999999890e-05  3.50000000000000e-01 -1.00000000000003e-04
1.96969696969697e+01  9.99999999999890e-05  3.50000000000000e-01 -1.00000000000003e-04
2.03030303030303e+01  9.99999999999890e-05  3.50000000000000e-01 -1.00000000000003e-04
2.09090909090909e+01  9.99999999999890e-05  3.50000000000000e-01 -1.00000000000003e-04
2.15151515151515e+01  9.99999999999890e-05  3.50000000000000e-01 -1.00000000000003e-04
2.21212121212121e+01  9.99999999999890e-05  3.50000000000000e-01 -1.00000000000003e-04
2.27272727272727e+01  9.99999999999890e-05  3.50000000000000e-01 -1.00000000000003e-04
2.33333333333333e+01  9.99999999999890e-05  3.50000000000000e-01 -1.00000000000003e-04
2.39393939393939e+01  9.99999999999890e-05  3.50000000000000e-01 -1.00000000000003e-04
2.45454545454545e+01  9.99999999999890e-05  3.50000000000000e-01 -1.00000000000003e-04
2.51515151515151e+01  9.99999999999890e-05  3.50000000000000e-01 -9.99999999999890e-05
2.57575757575758e+01  9.99999999999890e-05  3.50000000000000e-01 -9.99999999999890e-05
2.63636363636364e+01  9.99999999999890e-05  3.50000000000000e-01 -9.99999999999890e-05
2.69696969696970e+01  9.99999999999890e-05  3.50000000000000e-01 -9.99999999999890e-05
2.75757575757576e+01  9.99999999999890e-05  3.50000000000000e-01 -9.99999999999890e-05
2.81818181818182e+01  9.99999999999890e-05  3.50000000000000e-01 -9.99999999999890e-05
2.87878787878788e+01  9.99999999999890e-05  3.50000000000000e-01 -9.99999999999890e-05
2.93939393939394e+01  1.00000000000211e-04  3.50000000000000e-01 -9.99999999999890e-05
3.00000000000000e+01  9.99999999998780e-05  3.50000000000000e-01 -9.99999999999890e-05
3.30000000000000e+01  9.99999999999890e-05  3.50000000000000e-01 -9.99999999999890e-05
3.60000000000000e+01  9.99999999999890e-05  3.50000000000000e-01 -9.99999999999890e-05
3.90000000000000e+01  9.99999999999890e-05  3.50000000000000e-01 -9.99999999999890e-05
4.20000000000000e+01  9.99999999999890e-05  3.50000000000000e-01 -9.99999999999890e-05
4.50000000000000e+01  9.99999999999890e-05  3.50000000000000e-01 -9.99999999999890e-05
4.80000000000000e+01  9.99999999999890e-05  3.50000000000000e-01 -9.99999999999890e-05
5.10000000000000e+01  1.00000000000044e-04  3.50000000000000e-01 -9.99999999999890e-05
5.40000000000000e+01  9.99999999999890e-05  3.50000000000000e-01 -9.99999999999890e-05
5.70000000000000e+01  9.99999999999890e-05  3.50000000000000e-01 -9.99999999999890e-05
6.00000000000000e+01  9.99999999999890e-05  3.50000000000000e-01 -9.99999999999890e-05
6.30000000000000e+01  9.99999999999890e-05  3.50000000000000e-01 -9.99999999999890e-05
6.60000000000000e+01  9.99999999999890e-05  3.50000000000000e-01 -9.99999999999890e-05
6.90000000000000e+01  9.99999999999890e-05  3.50000000000000e-01 -9.99999999999890e-05
7.20000000000000e+01  9.99999999999890e-05  3.50000000000000e-01 -9.99999999999890e-05
7.50000000000000e+01  9.99999999999890e-05  3.50000000000000e-01 -9.99999999999890e-05
7.80000000000000e+01  9.99999999999890e-05  3.50000000000000e-01 -9.99999999999890e-05
8.10000000000000e+01  9.99999999999890e-05  3.50000000000000e-01 -9.99999999999890e-05
8.40000000000000e+01  9.99999999999890e-05  3.50000000000000e-01 -9.99999999999890e-05
8.70000000000000e+01  1.00000000000003e-04  3.50000000000000e-01 -9.99999999999890e-05
9.00000000000000e+01  1.00000000000000e-04  3.50000000000000e-01 -9.99999999999890e-05
9.30000000000000e+01  1.00000000000003e-04  3.50000000000000e-01 -9.99999999999890e-05
9.60000000000000e+01  1.00000000000003e-04  3.50000000000000e-01 -9.99999999999890e-05
9.90000000000000e+01  9.99999999999890e-05  3.50000000000000e-01 -9.99999999999890e-05
1.02000000000000e+02  9.99999999999890e-05  3.50000000000000e-01 -9.99999999999890e-05
1.05000000000000e+02  9.99999999999890e-05  3.50000000000000e-01 -9.99999999999890e-05
1.08000000000000e+02  9.99999999999890e-05  3.50000000000000e-01 -9.99999999999890e-05
1.11000000000000e+02  9.99999999999890e-05  3.50000000000000e-01 -9.99999999999890e-05
1.14000000000000e+02  9.99999999999890e-05  3.50000000000000e-01 -9.99999999999890e-05
1.17000000000000e+02  9.99999999999890e-05  3.50000000000000e-01 -9.99999999999890e-05
1.20000000000000e+02  9.99999999999890e-05  3.50000000000000e-01 -9.99999999999890e-05
1.23000000000000e+02  9.99999999999890e-05  3.50000000000000e-01 -9.99999999999890e-05
1.26000000000000e+02  9.99999999999890e-05  3.50000000000000e-01 -9.99999999999890e-05
1.29000000000000e+02  9.99999999999890e-05  3.50000000000000e-01 -9.99999999999890e-05
1.32000000000000e+02  9.99999999999890e-05  3.50000000000000e-01 -9.99999999999890e-05
1.35000000000000e+02  9.99999999999890e-05  3.50000000000000e-01 -9.99999999999890e-05
1.38000000000000e+02  9.99999999999890e-05  3.50000000000000e-01 -9.99999999999890e-05
1.41000000000000e+02  9.99999999999890e-05  3.50000000000000e-01 -9.99999999999890e-05
1.44000000000000e+02  9.99999999999890e-05  3.50000000000000e-01 -9.99999999999890e-05
1.47000000000000e+02  9.99999999999890e-05  3.50000000000000e-01 -9.99999999999890e-05
1.50000000000000e+02  1.00000000000100e-04  3.50000000000000e-01 -9.99999999999890e-05
1.53000000000000e+02  9.99999999999890e-05  3.50000000000000e-01 -9.99999999999890e-05
1.56000000000000e+02  9.99999999999890e-05  3.50000000000000e-01 -9.99999999999890e-05
1.59000000000000e+02  9.99999999999890e-05  3.50000000000000e-01 -9.99999999999890e-05
1.62000000000000e+02  9.99999999999890e-05  3.50000000000000e-01 -9.99999999999890e-05
1.65000000000000e+02  9.99999999999890e-05  3.50000000000000e-01 -9.99999999999890e-05
1.68000000000000e+02  9.99999999999890e-05  3.50000000000000e-01 -9.99999999999890e-05
1.71000000000000e+02  9.99999999999890e-05  3.50000000000000e-01 -9.99999999999890e-05
1.74000000000000e+02  9.99999999999890e-05  3.50000000000000e-01 -9.99999999999890e-05
1.77000000000000e+02  9.99999999999890e-05  3.50000000000000e-01 -1.00000000000003e-04
1.80000000000000e+02  1.00000000000000e-04  3.50000000000000e-01 -1.00000000000000e-04
--
Contents of "./IEA-15-240-RWT/Airfoils/IEA-15-240-RWT_AeroDyn15_Polar_01.dat":
 DEFAULT         = InterpOrd           
 1               = NonDimArea          
 201             = NumCoords           
0.499996       0
1.00000000000000e+00  1.40005998995553e-08
9.99429427343441e-01 -2.22597267030057e-02
9.98061572217025e-01 -4.44577848805880e-02
9.95571383549524e-01 -6.65613532214902e-02
9.92082809827900e-01 -8.85193855241323e-02
9.87681777703418e-01 -1.10274914777896e-01
9.82325363018063e-01 -1.31784096290399e-01
9.76006023234194e-01 -1.53006417256835e-01
9.68780907279161e-01 -1.73886649853821e-01
9.60667684160886e-01 -1.94379246532870e-01
9.51667600623758e-01 -2.14449599639644e-01
9.41819346367688e-01 -2.34058280560842e-01
9.31166468996032e-01 -2.53152837999437e-01
9.19721069411155e-01 -2.71705651589515e-01
9.07514754074885e-01 -2.89690709437295e-01
8.94600146303824e-01 -3.07057071448252e-01
8.80998997819370e-01 -3.23778855290503e-01
8.66736792567221e-01 -3.39838248522847e-01
8.51878755382849e-01 -3.55199415819552e-01
8.36457596260419e-01 -3.69841842202921e-01
8.20501280345495e-01 -3.83759938879697e-01
8.04061310083066e-01 -3.96913055465217e-01
7.87178721540307e-01 -4.09287205211027e-01
7.69884847323010e-01 -4.20891537995147e-01
7.52239038648575e-01 -4.31700853408170e-01
7.34277840346126e-01 -4.41700973750181e-01
7.16031241238548e-01 -4.50912791027355e-01
6.97557812893171e-01 -4.59307331507645e-01
6.78892246319772e-01 -4.66887612738659e-01
6.60066289421290e-01 -4.73688529443277e-01
6.41133441201703e-01 -4.79659179048869e-01
6.22123552036738e-01 -4.84838110567366e-01
6.03073905295938e-01 -4.89263240909268e-01
5.84030982810156e-01 -4.92871071663808e-01
5.65016899440764e-01 -4.95764648987003e-01
5.46074693367218e-01 -4.97900058679315e-01
5.27234879120912e-01 -4.99198192585696e-01
5.08522292788441e-01 -4.99892800940364e-01
4.89978858523711e-01 -4.99857480717926e-01
4.71618801653453e-01 -4.99145063846224e-01
4.53479393608716e-01 -4.97857381618549e-01
4.35580419493293e-01 -4.95840767661285e-01
4.17943422880783e-01 -4.93211519813745e-01
4.00597367904574e-01 -4.90025105680319e-01
3.83548827577646e-01 -4.86231538701768e-01
3.66831403801181e-01 -4.81943816480506e-01
3.50445814046255e-01 -4.77097554919849e-01
3.34423299150815e-01 -4.71791983498949e-01
3.18763250780893e-01 -4.65987728123496e-01
3.03489116310374e-01 -4.59761938701466e-01
2.88601142803576e-01 -4.53101012086089e-01
2.74114601386245e-01 -4.46061383005148e-01
2.60032039609033e-01 -4.38643841302036e-01
2.46365836252729e-01 -4.30887080633753e-01
2.33114787808629e-01 -4.22802657531928e-01
2.20285500112543e-01 -4.14431921584177e-01
2.07875383951102e-01 -4.05780508776961e-01
1.95895429958061e-01 -3.96886927398520e-01
1.84334107828037e-01 -3.87752897816203e-01
1.73207160176379e-01 -3.78422722980516e-01
1.62492766215665e-01 -3.68891724014934e-01
1.52208559239028e-01 -3.59210964738185e-01
1.42326076964707e-01 -3.49372064581795e-01
1.32866781079567e-01 -3.39419088580448e-01
1.23801449059621e-01 -3.29350021348010e-01
1.15142955969917e-01 -3.19193110270350e-01
1.06882858163562e-01 -3.08962769351762e-01
9.90030643587096e-02 -2.98666578673889e-01
9.15196442392668e-02 -2.88337892118020e-01
8.43935565355487e-02 -2.77970704434639e-01
7.76432589821407e-02 -2.67596026440612e-01
7.12449433732097e-02 -2.57221278615913e-01
6.51851467232884e-02 -2.46853409688193e-01
5.94849879921953e-02 -2.36517012068296e-01
5.40979884215793e-02 -2.26206746308259e-01
4.90358344819246e-02 -2.15942191770559e-01
4.42985079397142e-02 -2.05738640498377e-01
3.98407091165603e-02 -1.95591330310490e-01
3.56884985510426e-02 -1.85519465685032e-01
3.18279178676808e-02 -1.75530241280368e-01
2.82188419167881e-02 -1.65621481935618e-01
2.48914999059792e-02 -1.55810061094456e-01
2.18277701790664e-02 -1.46100757283361e-01
1.89839099783587e-02 -1.36490770929544e-01
1.63915094394441e-02 -1.26994031206567e-01
1.40440477648929e-02 -1.17616798197041e-01
1.18793279574610e-02 -1.08353171083749e-01
9.93052868630150e-03 -9.92132410650907e-02
8.21906075945397e-03 -9.02053239808020e-02
6.65810252047977e-03 -8.13226418726482e-02
5.26751734441321e-03 -7.25697212349388e-02
4.09498369032961e-03 -6.39541883577312e-02
3.09865554229082e-03 -5.54760862324904e-02
2.19650575138584e-03 -4.71303625816726e-02
1.46256277557686e-03 -3.89230452547491e-02
9.64428880900557e-04 -3.08595288101021e-02
5.99336408504312e-04 -2.29354300064522e-02
2.90066482848754e-04 -1.51482322436148e-02
7.80653559246329e-05 -7.50195740484091e-03
0.00000000000000e+00  0.00000000000000e+00
7.80369577422810e-05  7.50047008949821e-03
2.89864474072776e-04  1.51422234004666e-02
5.98752221299196e-04  2.29217770203493e-02
9.63294269686962e-04  3.08350363946711e-02
1.45961772179312e-03  3.88843878102352e-02
2.19089550926614e-03  4.70741738618680e-02
3.08985945468262e-03  5.53989624741041e-02
4.08255154522300e-03  6.38526748856316e-02
5.24832804913223e-03  7.24401344968791e-02
6.63102695230831e-03  8.11614461417253e-02
8.18336643751576e-03  9.00090167272072e-02
9.88322662101310e-03  9.89780450697813e-02
1.18171740095009e-02  1.08075354103337e-01
1.39656498117348e-02  1.17292926172636e-01
1.62945046597224e-02  1.26620556808258e-01
1.88624565772894e-02  1.36063676706787e-01
2.16798631750457e-02  1.45616887144489e-01
2.47149426773156e-02  1.55266356870467e-01
2.80053361895133e-02  1.65013683465516e-01
3.15750134266354e-02  1.74855714462498e-01
3.53934446419227e-02  1.84775722697110e-01
3.94934173903166e-02  1.94774139559134e-01
4.38961778250621e-02  2.04846232434907e-01
4.85738634466406e-02  2.14972464514701e-01
5.35658424563709e-02  2.25156105024675e-01
5.88794524720093e-02  2.35385165239648e-01
6.44975668063143e-02  2.45638191199126e-01
7.04663737362468e-02  2.55920883769043e-01
7.67709557383878e-02  2.66211914933394e-01
8.34128849980207e-02  2.76498979190024e-01
9.04254305053313e-02  2.86781064153480e-01
9.77867895588179e-02  2.97025492478145e-01
1.05532034286455e-01  3.07236691386611e-01
1.13654308176871e-01  3.17388521315634e-01
1.22156724283709e-01  3.27463051403640e-01
1.31062414901579e-01  3.37457523408638e-01
1.40349229201793e-01  3.47336616783170e-01
1.50049347051718e-01  3.57107371683684e-01
1.60142851978632e-01  3.66726783570871e-01
1.70651722352345e-01  3.76198864186818e-01
1.81568130656064e-01  3.85485180496659e-01
1.92900373517033e-01  3.94572942393013e-01
2.04650062473387e-01  4.03441900895501e-01
2.16809407711859e-01  4.12063273946677e-01
2.29388161261882e-01  4.20430873674365e-01
2.42369097353979e-01  4.28505361357879e-01
2.55764541123941e-01  4.36286686890808e-01
2.69557327207425e-01  4.43720518954356e-01
2.83755969289181e-01  4.50815535645405e-01
2.98337793903356e-01  4.57519232064581e-01
3.13308440136266e-01  4.63838312202483e-01
3.28647578612239e-01  4.69717217633800e-01
3.44353731544870e-01  4.75156428462534e-01
3.60408244853217e-01  4.80115418044360e-01
3.76799402652574e-01  4.84570877794031e-01
3.93513131929384e-01  4.88528963157307e-01
4.10526254543845e-01  4.91907460220115e-01
4.27830591891118e-01  4.94785114831379e-01
4.45393789684201e-01  4.96993562805830e-01
4.63209168470989e-01  4.98686505971343e-01
4.81238272769653e-01  4.99568228610593e-01
4.99467590291924e-01  4.99992158197957e-01
5.17866006466328e-01  4.99602769356364e-01
5.36403938556423e-01  4.98712432490960e-01
5.55061920973600e-01  4.96940591246620e-01
5.73794577555942e-01  4.94540624226612e-01
5.92582842082514e-01  4.91336635868271e-01
6.11387474867201e-01  4.87422185428382e-01
6.30172541525958e-01  4.82758580946989e-01
6.48912932599518e-01  4.77294544711586e-01
6.67556425941521e-01  4.71086354296818e-01
6.86074743405682e-01  4.64081317624005e-01
7.04431826856421e-01  4.56281232320674e-01
7.22578683995759e-01  4.47717549871310e-01
7.40488571062978e-01  4.38353834215016e-01
7.58112436634799e-01  4.28209350234295e-01
7.75408233050915e-01  4.17300188381259e-01
7.92349858684666e-01  4.05611562914235e-01
8.08882327912338e-01  3.93171409150622e-01
8.24962738826757e-01  3.79988508650156e-01
8.40565414246071e-01  3.66061008171375e-01
8.55641607139505e-01  3.51431756036478e-01
8.70152165931217e-01  3.36116704625257e-01
8.84074751506678e-01  3.20124680972120e-01
8.97351411193486e-01  3.03489770031700e-01
9.09945391979414e-01  2.86240427891614e-01
9.21842722709060e-01  2.68396129636527e-01
9.33004662474069e-01  2.50001181727226e-01
9.43381712415969e-01  2.31088757323814e-01
9.52966225012817e-01  2.11684822173323e-01
9.61736865408470e-01  1.91832354266127e-01
9.69635124673369e-01  1.71577172767025e-01
9.76659380194314e-01  1.50951684485025e-01
9.82810991312600e-01  1.29995634996227e-01
9.88025141194105e-01  1.08765313129958e-01
9.92302353521589e-01  8.72999477295311e-02
9.95691879580707e-01  6.56397858905899e-02
9.98119706513454e-01  4.38394721340010e-02
9.99443037892454e-01  2.19495558180643e-02
1.00000000000000e+00  1.40005998955560e-08
 AF01_BL.txt     = BL_file             
 1               = NumTabs             
 3.000000        = Re                  
 0               = Ctrl                
 False           = InclUAdata          
 200             = NumAlf              
-1.80000000000000e+02  9.99956900108589e-05  3.49991742771221e-01 -9.99956900108589e-05
-1.77000000000000e+02  1.08182339015592e-04  3.49991665503880e-01 -9.78096826804698e-05
-1.74000000000000e+02  1.16535527858563e-04  3.49991459408608e-01 -9.55059016620131e-05
-1.71000000000000e+02  1.24888681656388e-04  3.49991126498129e-01 -9.32021652702975e-05
-1.68000000000000e+02  1.33206210387149e-04  3.49991544878852e-01 -9.33805516582925e-05
-1.65000000000000e+02  1.41506664871671e-04  3.49991518311294e-01 -9.47999407836103e-05
-1.62000000000000e+02  1.49806448963619e-04  3.49990428058219e-01 -9.62193738493489e-05
-1.59000000000000e+02  1.54145506945980e-04  3.49990292862054e-01 -9.79004935755673e-05
-1.56000000000000e+02  1.50561984681885e-04  3.49992524472016e-01 -9.99997591197288e-05
-1.53000000000000e+02  1.46979077062070e-04  3.49994451026034e-01 -9.99997799269042e-05
-1.50000000000000e+02  1.43396139430180e-04  3.49996087686587e-01 -9.99997965916849e-05
-1.47000000000000e+02  1.34341858032586e-04  3.50000000001663e-01 -9.99998171934552e-05
-1.44000000000000e+02  1.32328777054283e-04  3.50001218636936e-01 -9.99998359821549e-05
-1.41000000000000e+02  1.29801813394725e-04  3.50003516804110e-01 -9.99998541389713e-05
-1.38000000000000e+02  1.27897661903010e-04  3.50006069122226e-01 -9.99998614056100e-05
-1.35000000000000e+02  1.26256615060671e-04  3.50008734554717e-01 -9.99998636965760e-05
-1.32000000000000e+02  1.24524433766246e-04  3.50011387393220e-01 -9.99998659873130e-05
-1.29000000000000e+02  1.22785006912533e-04  3.50013988000102e-01 -9.99998668924362e-05
-1.26000000000000e+02  1.21066124279409e-04  3.50016444212797e-01 -9.99998636398783e-05
-1.23000000000000e+02  1.19380793315284e-04  3.50019012767813e-01 -9.99998606817792e-05
-1.20000000000000e+02  1.17773160459342e-04  3.50021833616524e-01 -9.99998577761799e-05
-1.17000000000000e+02  1.15932235401184e-04  3.50023739382584e-01 -9.99998530689938e-05
-1.14000000000000e+02  1.14141931675554e-04  3.50025883971005e-01 -9.99998483887168e-05
-1.11000000000000e+02  1.12405184766486e-04  3.50028333976257e-01 -9.99998436215163e-05
-1.08000000000000e+02  1.10622734526781e-04  3.50030034211198e-01 -9.99998395294632e-05
-1.05000000000000e+02  1.08804706408059e-04  3.50031472689910e-01 -9.99998358582610e-05
-1.02000000000000e+02  1.06984714860922e-04  3.50033261127597e-01 -9.99998320011797e-05
-9.90000000000000e+01  1.05221576403462e-04  3.50034821556323e-01 -9.99998291702636e-05
-9.60000000000000e+01  1.03568074910786e-04  3.50035379459493e-01 -9.99998288358367e-05
-9.30000000000000e+01  1.01830901693329e-04  3.50036338639419e-01 -9.99998283057468e-05
-9.00000000000000e+01  9.99953285190307e-05  3.50037703820502e-01 -9.99998277535635e-05
-8.70000000000000e+01  9.81600505267923e-05  3.50036338494801e-01 -9.99998348324704e-05
[...]
5.36548400903477e-01  9.39688774564715e-02
5.55881355199664e-01  9.03838060138069e-02
5.75562372757084e-01  8.66043381028199e-02
5.95577970398358e-01  8.26174413045570e-02
6.15918406419707e-01  7.84356567370351e-02
6.36571346336407e-01  7.40624490885372e-02
6.57538252289466e-01  6.95719746617823e-02
6.78805330161313e-01  6.49684751967319e-02
7.00356747433778e-01  6.02530296562983e-02
7.22190564422178e-01  5.54942107563349e-02
7.44281974327413e-01  5.06608414104289e-02
7.66628713730443e-01  4.58296525153133e-02
7.89212731568401e-01  4.10099912210156e-02
8.12018185533069e-01  3.62261968408074e-02
8.35028977005283e-01  3.15060199889171e-02
8.58219151715056e-01  2.68336443816806e-02
8.81569312265979e-01  2.22287377219739e-02
9.05060689011999e-01  1.77175246606552e-02
9.28671627335113e-01  1.33156680593407e-02
9.52381403156938e-01  9.07315533594737e-03
9.76165312677752e-01  4.93304948753480e-03
1.00000000000000e+00  9.38336381193382e-04
 AF49_BL.txt     = BL_file             
 1               = NumTabs             
 3.000000        = Re                  
 0               = Ctrl                
 True            = InclUAdata          
 -3.025329       = alpha0              
 13.940969       = alpha1              
 -13.951621      = alpha2              
 1.000000        = eta_e               
 7.004735        = C_nalpha            
 Default         = T_f0                
 Default         = T_V0                
 Default         = T_p                 
 Default         = T_VL                
 Default         = b1                  
 Default         = b2                  
 Default         = b5                  
 Default         = A1                  
 Default         = A2                  
 Default         = A5                  
 0.000000        = S1                  
 0.000000        = S2                  
 0.000000        = S3                  
 0.000000        = S4                  
 1.754861        = Cn1                 
 -1.130644       = Cn2                 
 Default         = St_sh               
 0.006831        = Cd0                 
 -0.079741       = Cm0                 
 0.000000        = k0                  
 0.000000        = k1                  
 0.000000        = k2                  
 0.000000        = k3                  
 0.000000        = k1_hat              
 Default         = x_cp_bar            
 Default         = UACutout            
 Default         = filtCutOff          
 200             = NumAlf              
-1.80000000000000e+02  4.85722573273506e-18  2.46414625588597e-02  0.00000000000000e+00
-1.77000000000000e+02  7.09078783383423e-02  2.59899654394449e-02  1.20000000361047e-01
-1.74000000000000e+02  1.41815755613326e-01  2.95870407694700e-02  2.39999998922534e-01
-1.71000000000000e+02  2.12724023589752e-01  3.53981062097947e-02  3.60000658682385e-01
-1.68000000000000e+02  2.83635114323999e-01  6.23536246130750e-02  3.88683131002858e-01
-1.65000000000000e+02  3.54539390231399e-01  9.81315663888160e-02  3.71709983123391e-01
-1.62000000000000e+02  4.25451140020828e-01  1.40638541882525e-01  3.54735046137367e-01
-1.59000000000000e+02  4.96351238664441e-01  1.90141020854771e-01  3.50871003624422e-01
-1.56000000000000e+02  5.67264876246885e-01  2.45848849126870e-01  3.73229628946347e-01
-1.53000000000000e+02  6.38171661458157e-01  3.06742822712792e-01  3.95586093758603e-01
-1.50000000000000e+02  7.09078781261519e-01  3.72562354853516e-01  4.16279946005650e-01
-1.47000000000000e+02  7.50443575482131e-01  4.43016767221693e-01  4.20346856774768e-01
-1.44000000000000e+02  7.32722201977660e-01  5.15934068684593e-01  4.22751049476045e-01
-1.41000000000000e+02  7.14412470826591e-01  5.92145558711669e-01  4.25249806728838e-01
-1.38000000000000e+02  6.94574008880946e-01  6.69588003211173e-01  4.28519264801468e-01
-1.35000000000000e+02  6.72876491919531e-01  7.47874730212582e-01  4.32363202318299e-01
-1.32000000000000e+02  6.48057050875902e-01  8.26351001911627e-01  4.36207139878165e-01
-1.29000000000000e+02  6.19551051959611e-01  9.03691990090244e-01  4.41015754695827e-01
-1.26000000000000e+02  5.88097883889968e-01  9.79476039224861e-01  4.46320147916898e-01
-1.23000000000000e+02  5.53641368004556e-01  1.05332349010379e+00  4.51963651365242e-01
-1.20000000000000e+02  5.14577730079261e-01  1.12283400240132e+00  4.57221478466790e-01
-1.17000000000000e+02  4.72470346873147e-01  1.18834261738102e+00  4.61630817409231e-01
-1.14000000000000e+02  4.27675415731853e-01  1.24975699822349e+00  4.65615912292485e-01
-1.11000000000000e+02  3.79966296232926e-01  1.30593816517334e+00  4.69601007215107e-01
-1.08000000000000e+02  3.29167434663816e-01  1.35443145187167e+00  4.70624689513598e-01
-1.05000000000000e+02  2.76680648972375e-01  1.39714437494550e+00  4.70979456271530e-01
-1.02000000000000e+02  2.22716812230383e-01  1.43386877398686e+00  4.70718887134564e-01
-9.90000000000000e+01  1.67323513736515e-01  1.46177719221746e+00  4.68714600495400e-01
-9.60000000000000e+01  1.11442067459277e-01  1.48140709264988e+00  4.64514521421943e-01
-9.30000000000000e+01  5.55807418230594e-02  1.49417607499090e+00  4.59628257189905e-01
-9.00000000000000e+01 -2.17720385095452e-10  1.49999999997719e+00  4.54741992894100e-01
-8.70000000000000e+01 -5.55807414898173e-02  1.49417607502582e+00  4.44256194940782e-01
-8.40000000000000e+01 -1.11442067307830e-01  1.48140709269595e+00  4.33770396897690e-01
-8.10000000000000e+01 -1.67323514170487e-01  1.46177719199882e+00  4.22751815715067e-01
-7.80000000000000e+01 -2.22716812664355e-01  1.43386877376821e+00  4.10028328729202e-01
-7.50000000000000e+01 -2.76680648756403e-01  1.39714437509904e+00  3.95950945859518e-01
-7.20000000000000e+01 -3.29167434424632e-01  1.35443145209476e+00  3.81456984926632e-01
-6.90000000000000e+01 -3.79966296543858e-01  1.30593816480719e+00  3.66569710870844e-01
-6.60000000000000e+01 -4.27675415382966e-01  1.24975699863433e+00  3.49941167676215e-01
-6.30000000000000e+01 -4.72470346812693e-01  1.18834261746902e+00  3.33312624317319e-01
-6.00000000000000e+01 -5.14577730205217e-01  1.12283400217720e+00  3.16533804218062e-01
-5.70000000000000e+01 -5.53641367590261e-01  1.05332349084099e+00  2.99454430776818e-01
-5.40000000000000e+01 -5.88097883955245e-01  9.79476039083604e-01  2.82238441882844e-01
-5.10000000000000e+01 -6.19551052189733e-01  9.03691989486419e-01  2.65101376417570e-01
-4.80000000000000e+01 -6.48057051004965e-01  8.26351001503544e-01  2.48082937508914e-01
-4.50000000000000e+01 -6.72876491705341e-01  7.47874730889827e-01  2.31295319956564e-01
-4.20000000000000e+01 -6.57074008879510e-01  6.69588003216531e-01  2.14507702216265e-01
-3.90000000000000e+01 -6.39412470861568e-01  5.92145558566002e-01  1.89164063976627e-01
-3.60000000000000e+01 -6.20222201789713e-01  5.15934069457928e-01  1.52341978697799e-01
-3.30000000000000e+01 -6.00443575539271e-01  4.43016766986580e-01  1.14111494476316e-01
-3.00000000000000e+01 -6.18855350575448e-01  3.52809999241618e-01  8.33188997922929e-02
-2.93939393939394e+01 -6.26432517259429e-01  3.32839999218799e-01  7.78494755436190e-02
-2.87878787878788e+01 -6.34009683943411e-01  3.12869999195980e-01  7.23800512949450e-02
-2.81818181818182e+01 -6.41586850627392e-01  2.92899999173161e-01  6.69106270462710e-02
-2.75757575757576e+01 -6.73192122821169e-01  2.71284999274155e-01  6.00945088504803e-02
-2.69696969696970e+01 -7.15095152472005e-01  2.48964999568361e-01  5.27012362206603e-02
-2.63636363636364e+01 -7.56998182122842e-01  2.26644999862567e-01  4.53079635908404e-02
-2.57575757575758e+01 -8.09944833521673e-01  2.04325000156773e-01  3.79146909610205e-02
-2.51515151515151e+01 -8.68654233957885e-01  1.82005000450979e-01  3.05214183312005e-02
-2.45454545454545e+01 -9.33035855043819e-01  1.59685000745185e-01  2.31281457013806e-02
-2.39393939393939e+01 -9.94405618127171e-01  1.38746226141576e-01  1.61713243791283e-02
-2.33333333333333e+01 -1.01353654167091e+00  1.30238483707612e-01  1.31425667999098e-02
-2.27272727272727e+01 -1.03266746521465e+00  1.21730741273648e-01  1.01138092206914e-02
-2.21212121212121e+01 -1.05179838875839e+00  1.13222998839684e-01  7.08505164147293e-03
-2.15151515151515e+01 -1.07092931230213e+00  1.04715256405720e-01  4.05629406225448e-03
-2.09090909090909e+01 -1.09006023584586e+00  9.62075139717558e-02  1.02753648303605e-03
-2.03030303030303e+01 -1.10919115938960e+00  8.76997715377919e-02 -2.00122109618240e-03
-1.96969696969697e+01 -1.12195283285433e+00  8.06649456610962e-02 -4.00059996397744e-03
-1.90909090909091e+01 -1.12834525527937e+00  7.51030365638317e-02 -4.97059996508582e-03
-1.84848484848485e+01 -1.13473767770441e+00  6.95411274665672e-02 -5.94059996619421e-03
-1.78787878787879e+01 -1.14044375859081e+00  6.41091941049719e-02 -6.84363937252776e-03
-1.72727272727273e+01 -1.14340447274034e+00  5.91971637963288e-02 -7.47883634295054e-03
-1.66666666666667e+01 -1.14636518688987e+00  5.42851334876857e-02 -8.11403331337333e-03
-1.60606060606061e+01 -1.14932590103939e+00  4.93731031790426e-02 -8.74923028379612e-03
-1.54545454545455e+01 -1.15202717805199e+00  4.48701910389722e-02 -9.41178179878783e-03
-1.48484848484848e+01 -1.15469962870637e+00  4.04127364884243e-02 -1.00773727086393e-02
-1.42424242424242e+01 -1.15737207936076e+00  3.59552819378763e-02 -1.07429636184907e-02
-1.36363636363636e+01 -1.14749477340369e+00  3.18363728273672e-02 -1.31325999090123e-02
-1.30303030303030e+01 -1.12925096211883e+00  2.79431607017064e-02 -1.66715999130562e-02
-1.24242424242424e+01 -1.11100715083397e+00  2.40499485760457e-02 -2.02105999171001e-02
-1.18181818181818e+01 -1.07871512802652e+00  2.06459636867756e-02 -2.46224089472267e-02
-1.12121212121212e+01 -1.01364394146817e+00  1.83835091387359e-02 -3.10707725909586e-02
-1.06060606060606e+01 -9.48572754909815e-01  1.61210545906961e-02 -3.75191362346906e-02
-1.00000000000000e+01 -8.83501568351460e-01  1.38586000426563e-02 -4.39674998784226e-02
-9.39393939393939e+00 -8.06958181244367e-01  1.29178424409045e-02 -4.80862878058387e-02
-8.78787878787879e+00 -7.30414793920976e-01  1.19770848640719e-02 -5.22050756893329e-02
-8.18181818181818e+00 -6.53871406597585e-01  1.10363272872394e-02 -5.63238635728272e-02
-7.57575757575758e+00 -5.77127676149388e-01  1.03429454629350e-02 -5.96627241995084e-02
-6.96969696969697e+00 -5.00298084355819e-01  9.75558182590017e-03 -6.26673302635478e-02
-6.36363636363636e+00 -4.23468492562251e-01  9.16821818886537e-03 -6.56719363275871e-02
-5.75757575757576e+00 -3.46389072413291e-01  8.59835030893152e-03 -6.86055120905238e-02
-5.15151515151515e+00 -2.68934909713580e-01  8.05472606588610e-03 -7.14325423967844e-02
-4.54545454545454e+00 -1.91480747013868e-01  7.51110182284068e-03 -7.42595727030451e-02
-3.93939393939394e+00 -1.14200091471482e-01  7.00998030391116e-03 -7.69865090773461e-02
-3.33333333333333e+00 -3.84810004758693e-02  6.89138333407868e-03 -7.88125999885236e-02
-2.72727272727273e+00  3.72380905197434e-02  6.77278636424619e-03 -8.06386908997012e-02
-2.12121212121212e+00  1.12957181515356e-01  6.65418939441370e-03 -8.24647818108787e-02
-1.51515151515152e+00  1.88062685021846e-01  6.63685060622061e-03 -8.40490060911751e-02
-9.09090909090912e-01  2.62975154680634e-01  6.64880545596898e-03 -8.55649182425272e-02
-3.03030303030302e-01  3.37663014912467e-01  6.68330848532299e-03 -8.70363727475091e-02
3.03030303030302e-01  4.12176887539715e-01  6.73317515061806e-03 -8.84792514957012e-02
9.09090909090912e-01  4.86516772562380e-01  6.79840545185419e-03 -8.98935544871035e-02
1.51515151515152e+00  5.60457622665576e-01  6.89597181611000e-03 -9.12574757303916e-02
2.12121212121212e+00  6.34223318119770e-01  7.00580454521911e-03 -9.25993787856478e-02
2.72727272727273e+00  7.07570066795952e-01  7.14187726874912e-03 -9.38887726895767e-02
3.33333333333333e+00  7.80498184026711e-01  7.30700999523420e-03 -9.51338333028380e-02
3.93939393939394e+00  8.53083784562718e-01  7.49591909177100e-03 -9.63426212176364e-02
4.54545454545455e+00  9.24677342630372e-01  7.75680635900802e-03 -9.74543727083216e-02
5.15151515151515e+00  9.95597016918847e-01  8.07410937988024e-03 -9.85062817906832e-02
5.75757575757576e+00  1.06482572032358e+00  8.53666696941767e-03 -9.94110090903628e-02
6.36363636363637e+00  1.13279429773717e+00  9.07144999697415e-03 -1.00199845450852e-01
6.96969696969697e+00  1.19992279119627e+00  9.65438331427377e-03 -1.00911421188856e-01
7.57575757575757e+00  1.26401285436997e+00  1.04239369651998e-02 -1.01342315149114e-01
8.18181818181818e+00  1.32743441959680e+00  1.12068272781317e-02 -1.01712963638171e-01
8.78787878787879e+00  1.38966929719521e+00  1.19979181654635e-02 -1.01977509085440e-01
9.39393939393939e+00  1.45022229728932e+00  1.28306878694348e-02 -1.02093578787484e-01
1.00000000000000e+01  1.50986967084640e+00  1.36859000183078e-02 -1.02129699995493e-01
1.06060606060606e+01  1.56591374689314e+00  1.46569302946297e-02 -1.01890669699038e-01
1.12121212121212e+01  1.62032913559413e+00  1.56874817998069e-02 -1.01551327281192e-01
1.18181818181818e+01  1.67171981887173e+00  1.68285727428916e-02 -1.01025690901896e-01
1.24242424242424e+01  1.71732120780388e+00  1.82589121264519e-02 -1.00229727269653e-01
1.30303030303030e+01  1.75970880160322e+00  1.98550060097699e-02 -9.92979000279053e-02
1.36363636363636e+01  1.78817567294369e+00  2.22451272930941e-02 -9.79858999888201e-02
1.42424242424242e+01  1.80405229161054e+00  2.54394667344084e-02 -9.64468939104616e-02
1.48484848484848e+01  1.80104353334401e+00  2.98401332800337e-02 -9.45673788106429e-02
1.54545454545455e+01  1.77031515169143e+00  3.64364818427673e-02 -9.28892272673224e-02
1.60606060606061e+01  1.72822129397981e+00  4.40704518296318e-02 -9.14690181908170e-02
1.66666666666667e+01  1.66699703672865e+00  5.44559669930141e-02 -9.17662000093384e-02
1.72727272727273e+01  1.60577277947748e+00  6.48414821563965e-02 -9.20633818278598e-02
1.78787878787879e+01  1.54454852222632e+00  7.52269973197788e-02 -9.23605636463812e-02
1.84848484848485e+01  1.49715267722877e+00  8.57193488514518e-02 -9.39441697633689e-02
1.90909090909091e+01  1.45321393456136e+00  9.62384094695321e-02 -9.58493818867580e-02
1.96969696969697e+01  1.40927519189395e+00  1.06757470087612e-01 -9.77545940101472e-02
2.03030303030303e+01  1.37128788975218e+00  1.17476318599776e-01 -1.00146200110168e-01
2.09090909090909e+01  1.33925202723838e+00  1.28394954975889e-01 -1.03024200113457e-01
2.15151515151515e+01  1.30721616472458e+00  1.39313591352002e-01 -1.05902200116745e-01
2.21212121212121e+01  1.27518030221078e+00  1.50232227728114e-01 -1.08780200120034e-01
2.27272727272727e+01  1.24314443969698e+00  1.61150864104227e-01 -1.11658200123322e-01
2.33333333333333e+01  1.21110857718317e+00  1.72069500480340e-01 -1.14536200126611e-01
2.39393939393939e+01  1.18521318094112e+00  1.82988136856453e-01 -1.17414200129899e-01
2.45454545454545e+01  1.16381772655112e+00  1.96599818646254e-01 -1.21514181959599e-01
2.51515151515151e+01  1.14409802986632e+00  2.10510727553799e-01 -1.25749939479524e-01
2.57575757575758e+01  1.13006015136334e+00  2.24421636461345e-01 -1.29985696999448e-01
2.63636363636364e+01  1.11602227286036e+00  2.38332545368891e-01 -1.34221454519373e-01
2.69696969696970e+01  1.10198439435737e+00  2.52243454276436e-01 -1.38457212039298e-01
2.75757575757576e+01  1.08794651585439e+00  2.66154363183982e-01 -1.42692969559223e-01
2.81818181818182e+01  1.07084186495451e+00  2.82383771831320e-01 -1.47339908858783e-01
2.87878787878788e+01  1.04658141037268e+00  3.04023014280290e-01 -1.52946272501553e-01
2.93939393939394e+01  1.02232095579085e+00  3.25662256729258e-01 -1.58552636144323e-01
3.00000000000000e+01  9.98060501209013e-01  3.47301499178227e-01 -1.64158999787093e-01
3.30000000000000e+01  9.22062250770388e-01  4.43016766986580e-01 -1.89050377014450e-01
3.60000000000000e+01  9.34246002556734e-01  5.15934069457928e-01 -2.08221508455227e-01
3.90000000000000e+01  9.45589244087954e-01  5.92145558566002e-01 -2.27204042284425e-01
4.20000000000000e+01  9.54748584113586e-01  6.69588003216532e-01 -2.44649507771081e-01
4.50000000000000e+01  9.61252131007629e-01  7.47874730889827e-01 -2.60949244350105e-01
4.80000000000000e+01  9.25795787149951e-01  8.26351001503544e-01 -2.77248980746643e-01
5.10000000000000e+01  8.85072931699619e-01  9.03691989486419e-01 -2.92826828648911e-01
5.40000000000000e+01  8.40139834221778e-01  9.79476039083604e-01 -3.08033675125759e-01
5.70000000000000e+01  7.90916239414658e-01  1.05332349084099e+00 -3.22957806949482e-01
6.00000000000000e+01  7.35111043150310e-01  1.12283400217720e+00 -3.37591520807121e-01
6.30000000000000e+01  6.74957638303847e-01  1.18834261746902e+00 -3.51586315701813e-01
6.60000000000000e+01  6.10964879118523e-01  1.24975699863433e+00 -3.65261651053213e-01
6.90000000000000e+01  5.42808995062654e-01  1.30593816480719e+00 -3.78936986269520e-01
7.20000000000000e+01  4.70239192035188e-01  1.35443145209476e+00 -3.91247379618790e-01
7.50000000000000e+01  3.95258069652003e-01  1.39714437509904e+00 -4.03249463617085e-01
7.80000000000000e+01  3.18166875234793e-01  1.43386877376821e+00 -4.14964097416413e-01
8.10000000000000e+01  2.39033591672124e-01  1.46177719199882e+00 -4.25852018664857e-01
8.40000000000000e+01  1.59202953296899e-01  1.48140709269595e+00 -4.35698894587758e-01
8.70000000000000e+01  7.94010592711672e-02  1.49417607502582e+00 -4.45220443783577e-01
9.00000000000000e+01  3.11028980348738e-10  1.49999999997719e+00 -4.54741992897877e-01
9.30000000000000e+01 -5.55807418230592e-02  1.49417607499090e+00 -4.59628257189905e-01
9.60000000000000e+01 -1.11442067459277e-01  1.48140709264988e+00 -4.64514521421943e-01
9.90000000000000e+01 -1.67323513736515e-01  1.46177719221746e+00 -4.68714600495400e-01
1.02000000000000e+02 -2.22716812230383e-01  1.43386877398686e+00 -4.70718887134564e-01
1.05000000000000e+02 -2.76680648972375e-01  1.39714437494550e+00 -4.70979456271530e-01
1.08000000000000e+02 -3.29167434663816e-01  1.35443145187167e+00 -4.70624689513598e-01
1.11000000000000e+02 -3.79966296232927e-01  1.30593816517334e+00 -4.69601007215107e-01
1.14000000000000e+02 -4.27675415731853e-01  1.24975699822349e+00 -4.65615912292485e-01
1.17000000000000e+02 -4.72470346873147e-01  1.18834261738102e+00 -4.61630817409231e-01
1.20000000000000e+02 -5.14577730079261e-01  1.12283400240132e+00 -4.57221478466790e-01
1.23000000000000e+02 -5.53641368004556e-01  1.05332349010379e+00 -4.51963651365242e-01
1.26000000000000e+02 -5.88097883889968e-01  9.79476039224861e-01 -4.46320147916898e-01
1.29000000000000e+02 -6.19551051959611e-01  9.03691990090244e-01 -4.41015754695827e-01
1.32000000000000e+02 -6.48057050875903e-01  8.26351001911627e-01 -4.36207139878165e-01
1.35000000000000e+02 -6.72876491919531e-01  7.47874730212582e-01 -4.32363202318299e-01
1.38000000000000e+02 -6.94574008880946e-01  6.69588003211172e-01 -4.28519264801468e-01
1.41000000000000e+02 -7.14412470826591e-01  5.92145558711669e-01 -4.25249806728838e-01
1.44000000000000e+02 -7.32722201977660e-01  5.15934068684593e-01 -4.22751049476045e-01
1.47000000000000e+02 -7.50443575482131e-01  4.43016767221693e-01 -4.20346856774768e-01
1.50000000000000e+02 -7.09078781261518e-01  3.72562354853516e-01 -4.16279946005650e-01
1.53000000000000e+02 -6.38170903055494e-01  3.06742155077266e-01 -3.95585854638999e-01
1.56000000000000e+02 -5.67263024849471e-01  2.45847323942745e-01 -3.73229045212350e-01
1.59000000000000e+02 -4.96355146643446e-01  1.90143998922178e-01 -3.50872235785700e-01
1.62000000000000e+02 -4.25447268437423e-01  1.40636124349672e-01 -3.74735973053744e-01
1.65000000000000e+02 -3.54539390231399e-01  9.81315663888162e-02 -4.21709983289917e-01
1.68000000000000e+02 -2.83631512025374e-01  6.23519280822543e-02 -4.68683993526091e-01
1.71000000000000e+02 -2.12723633819350e-01  3.53980714785814e-02 -4.49999998824567e-01
1.74000000000000e+02 -1.41815755613326e-01  2.95870407694700e-02 -2.99999998653168e-01
1.77000000000000e+02 -7.09078783383423e-02  2.59899654394449e-02 -1.50000000451309e-01
1.80000000000000e+02  4.85722573273506e-18  2.46414625588597e-02  0.00000000000000e+00
